!- Linux Line endings 

Version,
    9.5;                      !- Version Identifier

SimulationControl,
    Yes,                      !- Do Zone Sizing Calculation
    Yes,                      !- Do System Sizing Calculation
    Yes,                      !- Do Plant Sizing Calculation
    Yes,                      !- Run Simulation for Sizing Periods
    Yes,                      !- Run Simulation for Weather File Run Periods
    ,                         !- Do HVAC Sizing Simulation for Sizing Periods
    ;                         !- Maximum Number of HVAC Sizing Simulation Passes

Building,
    None,                     !- Name
    0,                        !- North Axis
    ,                         !- Terrain
    0.04,                     !- Loads Convergence Tolerance Value
    0.4,                      !- Temperature Convergence Tolerance Value
    FullInteriorAndExterior,    !- Solar Distribution
    25,                       !- Maximum Number of Warmup Days
    6;                        !- Minimum Number of Warmup Days

Timestep,
    6;                        !- Number of Timesteps per Hour

SizingPeriod:DesignDay,
    DENVER_STAPLETON Ann Clg .4% Condns DB=>MWB,    !- Name
    7,                        !- Month
    21,                       !- Day of Month
    SummerDesignDay,          !- Day Type
    34.1,                     !- Maximum DryBulb Temperature
    15.2,                     !- Daily DryBulb Temperature Range
    DefaultMultipliers,       !- DryBulb Temperature Range Modifier Type
    ,                         !- DryBulb Temperature Range Modifier Day Schedule Name
    Wetbulb,                  !- Humidity Condition Type
    15.8,                     !- Wetbulb or DewPoint at Maximum DryBulb
    ,                         !- Humidity Condition Day Schedule Name
    ,                         !- Humidity Ratio at Maximum DryBulb
    ,                         !- Enthalpy at Maximum DryBulb
    ,                         !- Daily WetBulb Temperature Range
    83411,                    !- Barometric Pressure
    4,                        !- Wind Speed
    120,                      !- Wind Direction
    No,                       !- Rain Indicator
    No,                       !- Snow Indicator
    No,                       !- Daylight Saving Time Indicator
    ASHRAEClearSky,           !- Solar Model Indicator
    ,                         !- Beam Solar Day Schedule Name
    ,                         !- Diffuse Solar Day Schedule Name
    ,                         !- ASHRAE Clear Sky Optical Depth for Beam Irradiance taub
    ,                         !- ASHRAE Clear Sky Optical Depth for Diffuse Irradiance taud
    1;                        !- Sky Clearness

SizingPeriod:DesignDay,
    DENVER_STAPLETON Ann Htg 99.6% Condns DB,    !- Name
    12,                       !- Month
    21,                       !- Day of Month
    WinterDesignDay,          !- Day Type
    -20,                      !- Maximum DryBulb Temperature
    0,                        !- Daily DryBulb Temperature Range
    DefaultMultipliers,       !- DryBulb Temperature Range Modifier Type
    ,                         !- DryBulb Temperature Range Modifier Day Schedule Name
    Wetbulb,                  !- Humidity Condition Type
    -20,                      !- Wetbulb or DewPoint at Maximum DryBulb
    ,                         !- Humidity Condition Day Schedule Name
    ,                         !- Humidity Ratio at Maximum DryBulb
    ,                         !- Enthalpy at Maximum DryBulb
    ,                         !- Daily WetBulb Temperature Range
    83411,                    !- Barometric Pressure
    2.3,                      !- Wind Speed
    180,                      !- Wind Direction
    No,                       !- Rain Indicator
    No,                       !- Snow Indicator
    No,                       !- Daylight Saving Time Indicator
    ASHRAEClearSky,           !- Solar Model Indicator
    ,                         !- Beam Solar Day Schedule Name
    ,                         !- Diffuse Solar Day Schedule Name
    ,                         !- ASHRAE Clear Sky Optical Depth for Beam Irradiance taub
    ,                         !- ASHRAE Clear Sky Optical Depth for Diffuse Irradiance taud
    0;                        !- Sky Clearness

RunPeriod,
    Run Period 1,             !- Name
    1,                        !- Begin Month
    1,                        !- Begin Day of Month
    2009,                     !- Begin Year
    12,                       !- End Month
    31,                       !- End Day of Month
    2009,                     !- End Year
    Thursday,                 !- Day of Week for Start Day
    No,                       !- Use Weather File Holidays and Special Days
    No,                       !- Use Weather File Daylight Saving Period
    No,                       !- Apply Weekend Holiday Rule
    Yes,                      !- Use Weather File Rain Indicators
    Yes;                      !- Use Weather File Snow Indicators

Schedule:Constant,
    Always On Discrete,       !- Name
    OnOff,                    !- Schedule Type Limits Name
    1;                        !- Hourly Value

Schedule:Constant,
    Always Off Discrete,      !- Name
    ,                         !- Schedule Type Limits Name
    0;                        !- Hourly Value

Schedule:Constant,
    Always On Continuous,     !- Name
    ,                         !- Schedule Type Limits Name
    1;                        !- Hourly Value

GlobalGeometryRules,
    UpperLeftCorner,          !- Starting Vertex Position
    Counterclockwise,         !- Vertex Entry Direction
    Relative,                 !- Coordinate System
    Relative,                 !- Daylighting Reference Point Coordinate System
    Relative;                 !- Rectangular Surface Coordinate System

Zone,
    Block School/university_core_zone Storey 0 Thermal Zone,    !- Name
    0,                        !- Direction of Relative North
    0,                        !- X Origin
    0,                        !- Y Origin
    0,                        !- Z Origin
    ,                         !- Type
    1,                        !- Multiplier
    ,                         !- Ceiling Height
    ,                         !- Volume
    ,                         !- Floor Area
    ,                         !- Zone Inside Convection Algorithm
    ,                         !- Zone Outside Convection Algorithm
    Yes;                      !- Part of Total Floor Area

Zone,
    Block School/university_core_zone Storey 1 Thermal Zone,    !- Name
    0,                        !- Direction of Relative North
    0,                        !- X Origin
    0,                        !- Y Origin
    0,                        !- Z Origin
    ,                         !- Type
    1,                        !- Multiplier
    ,                         !- Ceiling Height
    ,                         !- Volume
    ,                         !- Floor Area
    ,                         !- Zone Inside Convection Algorithm
    ,                         !- Zone Outside Convection Algorithm
    Yes;                      !- Part of Total Floor Area

Zone,
    Block School/university_east_zone Storey 0 Thermal Zone,    !- Name
    0,                        !- Direction of Relative North
    0,                        !- X Origin
    0,                        !- Y Origin
    0,                        !- Z Origin
    ,                         !- Type
    1,                        !- Multiplier
    ,                         !- Ceiling Height
    ,                         !- Volume
    ,                         !- Floor Area
    ,                         !- Zone Inside Convection Algorithm
    ,                         !- Zone Outside Convection Algorithm
    Yes;                      !- Part of Total Floor Area

Zone,
    Block School/university_east_zone Storey 1 Thermal Zone,    !- Name
    0,                        !- Direction of Relative North
    0,                        !- X Origin
    0,                        !- Y Origin
    0,                        !- Z Origin
    ,                         !- Type
    1,                        !- Multiplier
    ,                         !- Ceiling Height
    ,                         !- Volume
    ,                         !- Floor Area
    ,                         !- Zone Inside Convection Algorithm
    ,                         !- Zone Outside Convection Algorithm
    Yes;                      !- Part of Total Floor Area

Zone,
    Block School/university_north_zone Storey 0 Thermal Zone,    !- Name
    0,                        !- Direction of Relative North
    0,                        !- X Origin
    0,                        !- Y Origin
    0,                        !- Z Origin
    ,                         !- Type
    1,                        !- Multiplier
    ,                         !- Ceiling Height
    ,                         !- Volume
    ,                         !- Floor Area
    ,                         !- Zone Inside Convection Algorithm
    ,                         !- Zone Outside Convection Algorithm
    Yes;                      !- Part of Total Floor Area

Zone,
    Block School/university_north_zone Storey 1 Thermal Zone,    !- Name
    0,                        !- Direction of Relative North
    0,                        !- X Origin
    0,                        !- Y Origin
    0,                        !- Z Origin
    ,                         !- Type
    1,                        !- Multiplier
    ,                         !- Ceiling Height
    ,                         !- Volume
    ,                         !- Floor Area
    ,                         !- Zone Inside Convection Algorithm
    ,                         !- Zone Outside Convection Algorithm
    Yes;                      !- Part of Total Floor Area

Zone,
    Block School/university_south_zone Storey 0 Thermal Zone,    !- Name
    0,                        !- Direction of Relative North
    0,                        !- X Origin
    0,                        !- Y Origin
    0,                        !- Z Origin
    ,                         !- Type
    1,                        !- Multiplier
    ,                         !- Ceiling Height
    ,                         !- Volume
    ,                         !- Floor Area
    ,                         !- Zone Inside Convection Algorithm
    ,                         !- Zone Outside Convection Algorithm
    Yes;                      !- Part of Total Floor Area

Zone,
    Block School/university_south_zone Storey 1 Thermal Zone,    !- Name
    0,                        !- Direction of Relative North
    0,                        !- X Origin
    0,                        !- Y Origin
    0,                        !- Z Origin
    ,                         !- Type
    1,                        !- Multiplier
    ,                         !- Ceiling Height
    ,                         !- Volume
    ,                         !- Floor Area
    ,                         !- Zone Inside Convection Algorithm
    ,                         !- Zone Outside Convection Algorithm
    Yes;                      !- Part of Total Floor Area

Zone,
    Block School/university_west_zone Storey 0 Thermal Zone,    !- Name
    0,                        !- Direction of Relative North
    0,                        !- X Origin
    0,                        !- Y Origin
    0,                        !- Z Origin
    ,                         !- Type
    1,                        !- Multiplier
    ,                         !- Ceiling Height
    ,                         !- Volume
    ,                         !- Floor Area
    ,                         !- Zone Inside Convection Algorithm
    ,                         !- Zone Outside Convection Algorithm
    Yes;                      !- Part of Total Floor Area

Zone,
    Block School/university_west_zone Storey 1 Thermal Zone,    !- Name
    0,                        !- Direction of Relative North
    0,                        !- X Origin
    0,                        !- Y Origin
    0,                        !- Z Origin
    ,                         !- Type
    1,                        !- Multiplier
    ,                         !- Ceiling Height
    ,                         !- Volume
    ,                         !- Floor Area
    ,                         !- Zone Inside Convection Algorithm
    ,                         !- Zone Outside Convection Algorithm
    Yes;                      !- Part of Total Floor Area

Sizing:Parameters,
    1.25,                     !- Heating Sizing Factor
    1.15;                     !- Cooling Sizing Factor

LifeCycleCost:Parameters,
    Life Cycle Cost Parameters,    !- Name
    EndOfYear,                !- Discounting Convention
    ConstantDollar,           !- Inflation Approach
    0.03,                     !- Real Discount Rate
    ,                         !- Nominal Discount Rate
    ,                         !- Inflation
    ,                         !- Base Date Month
    2011,                     !- Base Date Year
    ,                         !- Service Date Month
    2011,                     !- Service Date Year
    25,                       !- Length of Study Period in Years
    ,                         !- Tax rate
    None;                     !- Depreciation Method

LifeCycleCost:NonrecurringCost,
    Default Cost,             !- Name
    Construction,             !- Category
    0,                        !- Cost
    ServicePeriod;            !- Start of Costs

LifeCycleCost:UsePriceEscalation,
    U.S. Avg  Commercial-Electricity,    !- LCC Price Escalation Name
    Electricity,              !- Resource
    2011,                     !- Escalation Start Year
    January,                  !- Escalation Start Month
    0.9838,                   !- Year 1 Escalation
    0.973,                    !- Year 2 Escalation
    0.9632,                   !- Year 3 Escalation
    0.9611,                   !- Year 4 Escalation
    0.9571,                   !- Year 5 Escalation
    0.9553,                   !- Year 6 Escalation
    0.9539,                   !- Year 7 Escalation
    0.9521,                   !- Year 8 Escalation
    0.9546,                   !- Year 9 Escalation
    0.955,                    !- Year 10 Escalation
    0.9553,                   !- Year 11 Escalation
    0.9564,                   !- Year 12 Escalation
    0.9575,                   !- Year 13 Escalation
    0.9596,                   !- Year 14 Escalation
    0.9618,                   !- Year 15 Escalation
    0.9614,                   !- Year 16 Escalation
    0.9618,                   !- Year 17 Escalation
    0.9618,                   !- Year 18 Escalation
    0.9593,                   !- Year 19 Escalation
    0.9589,                   !- Year 20 Escalation
    0.9607,                   !- Year 21 Escalation
    0.9625,                   !- Year 22 Escalation
    0.965,                    !- Year 23 Escalation
    0.9708,                   !- Year 24 Escalation
    0.9751,                   !- Year 25 Escalation
    0.9762,                   !- Year 26 Escalation
    0.9766,                   !- Year 27 Escalation
    0.9766,                   !- Year 28 Escalation
    0.9769,                   !- Year 29 Escalation
    0.9773;                   !- Year 30 Escalation

LifeCycleCost:UsePriceEscalation,
    U.S. Avg  Commercial-Distillate Oil,    !- LCC Price Escalation Name
    FuelOilNo1,               !- Resource
    2011,                     !- Escalation Start Year
    January,                  !- Escalation Start Month
    0.9714,                   !- Year 1 Escalation
    0.973,                    !- Year 2 Escalation
    0.9942,                   !- Year 3 Escalation
    1.0164,                   !- Year 4 Escalation
    1.0541,                   !- Year 5 Escalation
    1.0928,                   !- Year 6 Escalation
    1.1267,                   !- Year 7 Escalation
    1.158,                    !- Year 8 Escalation
    1.1792,                   !- Year 9 Escalation
    1.1967,                   !- Year 10 Escalation
    1.22,                     !- Year 11 Escalation
    1.2333,                   !- Year 12 Escalation
    1.2566,                   !- Year 13 Escalation
    1.2709,                   !- Year 14 Escalation
    1.2826,                   !- Year 15 Escalation
    1.2985,                   !- Year 16 Escalation
    1.3102,                   !- Year 17 Escalation
    1.325,                    !- Year 18 Escalation
    1.3261,                   !- Year 19 Escalation
    1.3282,                   !- Year 20 Escalation
    1.3324,                   !- Year 21 Escalation
    1.3356,                   !- Year 22 Escalation
    1.3431,                   !- Year 23 Escalation
    1.351,                    !- Year 24 Escalation
    1.3568,                   !- Year 25 Escalation
    1.3606,                   !- Year 26 Escalation
    1.3637,                   !- Year 27 Escalation
    1.3674,                   !- Year 28 Escalation
    1.3706,                   !- Year 29 Escalation
    1.3743;                   !- Year 30 Escalation

LifeCycleCost:UsePriceEscalation,
    U.S. Avg  Commercial-Residual Oil,    !- LCC Price Escalation Name
    FuelOilNo2,               !- Resource
    2011,                     !- Escalation Start Year
    January,                  !- Escalation Start Month
    0.8469,                   !- Year 1 Escalation
    0.8257,                   !- Year 2 Escalation
    0.8681,                   !- Year 3 Escalation
    0.8988,                   !- Year 4 Escalation
    0.9289,                   !- Year 5 Escalation
    0.9604,                   !- Year 6 Escalation
    0.9897,                   !- Year 7 Escalation
    1.0075,                   !- Year 8 Escalation
    1.0314,                   !- Year 9 Escalation
    1.0554,                   !- Year 10 Escalation
    1.0861,                   !- Year 11 Escalation
    1.1278,                   !- Year 12 Escalation
    1.1497,                   !- Year 13 Escalation
    1.162,                    !- Year 14 Escalation
    1.1743,                   !- Year 15 Escalation
    1.1852,                   !- Year 16 Escalation
    1.1948,                   !- Year 17 Escalation
    1.2037,                   !- Year 18 Escalation
    1.2071,                   !- Year 19 Escalation
    1.2119,                   !- Year 20 Escalation
    1.2139,                   !- Year 21 Escalation
    1.2194,                   !- Year 22 Escalation
    1.2276,                   !- Year 23 Escalation
    1.2365,                   !- Year 24 Escalation
    1.242,                    !- Year 25 Escalation
    1.2461,                   !- Year 26 Escalation
    1.2509,                   !- Year 27 Escalation
    1.255,                    !- Year 28 Escalation
    1.2591,                   !- Year 29 Escalation
    1.2638;                   !- Year 30 Escalation

LifeCycleCost:UsePriceEscalation,
    U.S. Avg  Commercial-Natural gas,    !- LCC Price Escalation Name
    NaturalGas,               !- Resource
    2011,                     !- Escalation Start Year
    January,                  !- Escalation Start Month
    0.9823,                   !- Year 1 Escalation
    0.9557,                   !- Year 2 Escalation
    0.9279,                   !- Year 3 Escalation
    0.9257,                   !- Year 4 Escalation
    0.9346,                   !- Year 5 Escalation
    0.9412,                   !- Year 6 Escalation
    0.9512,                   !- Year 7 Escalation
    0.9645,                   !- Year 8 Escalation
    0.9856,                   !- Year 9 Escalation
    1.0067,                   !- Year 10 Escalation
    1.0222,                   !- Year 11 Escalation
    1.041,                    !- Year 12 Escalation
    1.061,                    !- Year 13 Escalation
    1.0787,                   !- Year 14 Escalation
    1.0942,                   !- Year 15 Escalation
    1.1098,                   !- Year 16 Escalation
    1.122,                    !- Year 17 Escalation
    1.1308,                   !- Year 18 Escalation
    1.1386,                   !- Year 19 Escalation
    1.1486,                   !- Year 20 Escalation
    1.1619,                   !- Year 21 Escalation
    1.1763,                   !- Year 22 Escalation
    1.1918,                   !- Year 23 Escalation
    1.2118,                   !- Year 24 Escalation
    1.2284,                   !- Year 25 Escalation
    1.2439,                   !- Year 26 Escalation
    1.2605,                   !- Year 27 Escalation
    1.2772,                   !- Year 28 Escalation
    1.2938,                   !- Year 29 Escalation
    1.3115;                   !- Year 30 Escalation

LifeCycleCost:UsePriceEscalation,
    U.S. Avg  Commercial-Coal,    !- LCC Price Escalation Name
    Coal,                     !- Resource
    2011,                     !- Escalation Start Year
    January,                  !- Escalation Start Month
    0.997,                    !- Year 1 Escalation
    1.0089,                   !- Year 2 Escalation
    1.0089,                   !- Year 3 Escalation
    0.9941,                   !- Year 4 Escalation
    0.9941,                   !- Year 5 Escalation
    1,                        !- Year 6 Escalation
    1.003,                    !- Year 7 Escalation
    1.0059,                   !- Year 8 Escalation
    1.0089,                   !- Year 9 Escalation
    1.0119,                   !- Year 10 Escalation
    1.0148,                   !- Year 11 Escalation
    1.0178,                   !- Year 12 Escalation
    1.0208,                   !- Year 13 Escalation
    1.0267,                   !- Year 14 Escalation
    1.0297,                   !- Year 15 Escalation
    1.0356,                   !- Year 16 Escalation
    1.0415,                   !- Year 17 Escalation
    1.0534,                   !- Year 18 Escalation
    1.0564,                   !- Year 19 Escalation
    1.0593,                   !- Year 20 Escalation
    1.0653,                   !- Year 21 Escalation
    1.0712,                   !- Year 22 Escalation
    1.0742,                   !- Year 23 Escalation
    1.0801,                   !- Year 24 Escalation
    1.0831,                   !- Year 25 Escalation
    1.0831,                   !- Year 26 Escalation
    1.0861,                   !- Year 27 Escalation
    1.089,                    !- Year 28 Escalation
    1.092,                    !- Year 29 Escalation
    1.095;                    !- Year 30 Escalation

Output:VariableDictionary,
    IDF,                      !- Key Field
    Unsorted;                 !- Sort Option

Output:Table:SummaryReports,
    AllSummary;               !- Report 1 Name

OutputControl:Table:Style,
    HTML;                     !- Column Separator

Output:SQLite,
    SimpleAndTabular;         !- Option Type