
Version,
  9.0;                                    !- Version Identifier

Timestep,
  6;                                      !- Number of Timesteps per Hour

LifeCycleCost:Parameters,
  Life Cycle Cost Parameters,             !- Name
  EndOfYear,                              !- Discounting Convention
  ConstantDollar,                         !- Inflation Approach
  0.03,                                   !- Real Discount Rate
  ,                                       !- Nominal Discount Rate
  ,                                       !- Inflation
  ,                                       !- Base Date Month
  2011,                                   !- Base Date Year
  ,                                       !- Service Date Month
  2011,                                   !- Service Date Year
  25,                                     !- Length of Study Period in Years
  ,                                       !- Tax rate
  None;                                   !- Depreciation Method

LifeCycleCost:UsePriceEscalation,
  U.S. Avg  Commercial-Electricity,       !- LCC Price Escalation Name
  Electricity,                            !- Resource
  2011,                                   !- Escalation Start Year
  January,                                !- Escalation Start Month
  0.9838,                                 !- Year Escalation 1
  0.9730,                                 !- Year Escalation 2
  0.9632,                                 !- Year Escalation 3
  0.9611,                                 !- Year Escalation 4
  0.9571,                                 !- Year Escalation 5
  0.9553,                                 !- Year Escalation 6
  0.9539,                                 !- Year Escalation 7
  0.9521,                                 !- Year Escalation 8
  0.9546,                                 !- Year Escalation 9
  0.9550,                                 !- Year Escalation 10
  0.9553,                                 !- Year Escalation 11
  0.9564,                                 !- Year Escalation 12
  0.9575,                                 !- Year Escalation 13
  0.9596,                                 !- Year Escalation 14
  0.9618,                                 !- Year Escalation 15
  0.9614,                                 !- Year Escalation 16
  0.9618,                                 !- Year Escalation 17
  0.9618,                                 !- Year Escalation 18
  0.9593,                                 !- Year Escalation 19
  0.9589,                                 !- Year Escalation 20
  0.9607,                                 !- Year Escalation 21
  0.9625,                                 !- Year Escalation 22
  0.9650,                                 !- Year Escalation 23
  0.9708,                                 !- Year Escalation 24
  0.9751,                                 !- Year Escalation 25
  0.9762,                                 !- Year Escalation 26
  0.9766,                                 !- Year Escalation 27
  0.9766,                                 !- Year Escalation 28
  0.9769,                                 !- Year Escalation 29
  0.9773;                                 !- Year Escalation 30

LifeCycleCost:UsePriceEscalation,
  U.S. Avg  Commercial-Distillate Oil,    !- LCC Price Escalation Name
  FuelOil#1,                              !- Resource
  2011,                                   !- Escalation Start Year
  January,                                !- Escalation Start Month
  0.9714,                                 !- Year Escalation 1
  0.9730,                                 !- Year Escalation 2
  0.9942,                                 !- Year Escalation 3
  1.0164,                                 !- Year Escalation 4
  1.0541,                                 !- Year Escalation 5
  1.0928,                                 !- Year Escalation 6
  1.1267,                                 !- Year Escalation 7
  1.1580,                                 !- Year Escalation 8
  1.1792,                                 !- Year Escalation 9
  1.1967,                                 !- Year Escalation 10
  1.2200,                                 !- Year Escalation 11
  1.2333,                                 !- Year Escalation 12
  1.2566,                                 !- Year Escalation 13
  1.2709,                                 !- Year Escalation 14
  1.2826,                                 !- Year Escalation 15
  1.2985,                                 !- Year Escalation 16
  1.3102,                                 !- Year Escalation 17
  1.3250,                                 !- Year Escalation 18
  1.3261,                                 !- Year Escalation 19
  1.3282,                                 !- Year Escalation 20
  1.3324,                                 !- Year Escalation 21
  1.3356,                                 !- Year Escalation 22
  1.3431,                                 !- Year Escalation 23
  1.3510,                                 !- Year Escalation 24
  1.3568,                                 !- Year Escalation 25
  1.3606,                                 !- Year Escalation 26
  1.3637,                                 !- Year Escalation 27
  1.3674,                                 !- Year Escalation 28
  1.3706,                                 !- Year Escalation 29
  1.3743;                                 !- Year Escalation 30

LifeCycleCost:UsePriceEscalation,
  U.S. Avg  Commercial-Residual Oil,      !- LCC Price Escalation Name
  FuelOil#2,                              !- Resource
  2011,                                   !- Escalation Start Year
  January,                                !- Escalation Start Month
  0.8469,                                 !- Year Escalation 1
  0.8257,                                 !- Year Escalation 2
  0.8681,                                 !- Year Escalation 3
  0.8988,                                 !- Year Escalation 4
  0.9289,                                 !- Year Escalation 5
  0.9604,                                 !- Year Escalation 6
  0.9897,                                 !- Year Escalation 7
  1.0075,                                 !- Year Escalation 8
  1.0314,                                 !- Year Escalation 9
  1.0554,                                 !- Year Escalation 10
  1.0861,                                 !- Year Escalation 11
  1.1278,                                 !- Year Escalation 12
  1.1497,                                 !- Year Escalation 13
  1.1620,                                 !- Year Escalation 14
  1.1743,                                 !- Year Escalation 15
  1.1852,                                 !- Year Escalation 16
  1.1948,                                 !- Year Escalation 17
  1.2037,                                 !- Year Escalation 18
  1.2071,                                 !- Year Escalation 19
  1.2119,                                 !- Year Escalation 20
  1.2139,                                 !- Year Escalation 21
  1.2194,                                 !- Year Escalation 22
  1.2276,                                 !- Year Escalation 23
  1.2365,                                 !- Year Escalation 24
  1.2420,                                 !- Year Escalation 25
  1.2461,                                 !- Year Escalation 26
  1.2509,                                 !- Year Escalation 27
  1.2550,                                 !- Year Escalation 28
  1.2591,                                 !- Year Escalation 29
  1.2638;                                 !- Year Escalation 30

LifeCycleCost:UsePriceEscalation,
  U.S. Avg  Commercial-Natural gas,       !- LCC Price Escalation Name
  NaturalGas,                             !- Resource
  2011,                                   !- Escalation Start Year
  January,                                !- Escalation Start Month
  0.9823,                                 !- Year Escalation 1
  0.9557,                                 !- Year Escalation 2
  0.9279,                                 !- Year Escalation 3
  0.9257,                                 !- Year Escalation 4
  0.9346,                                 !- Year Escalation 5
  0.9412,                                 !- Year Escalation 6
  0.9512,                                 !- Year Escalation 7
  0.9645,                                 !- Year Escalation 8
  0.9856,                                 !- Year Escalation 9
  1.0067,                                 !- Year Escalation 10
  1.0222,                                 !- Year Escalation 11
  1.0410,                                 !- Year Escalation 12
  1.0610,                                 !- Year Escalation 13
  1.0787,                                 !- Year Escalation 14
  1.0942,                                 !- Year Escalation 15
  1.1098,                                 !- Year Escalation 16
  1.1220,                                 !- Year Escalation 17
  1.1308,                                 !- Year Escalation 18
  1.1386,                                 !- Year Escalation 19
  1.1486,                                 !- Year Escalation 20
  1.1619,                                 !- Year Escalation 21
  1.1763,                                 !- Year Escalation 22
  1.1918,                                 !- Year Escalation 23
  1.2118,                                 !- Year Escalation 24
  1.2284,                                 !- Year Escalation 25
  1.2439,                                 !- Year Escalation 26
  1.2605,                                 !- Year Escalation 27
  1.2772,                                 !- Year Escalation 28
  1.2938,                                 !- Year Escalation 29
  1.3115;                                 !- Year Escalation 30

LifeCycleCost:UsePriceEscalation,
  U.S. Avg  Commercial-Coal,              !- LCC Price Escalation Name
  Coal,                                   !- Resource
  2011,                                   !- Escalation Start Year
  January,                                !- Escalation Start Month
  0.9970,                                 !- Year Escalation 1
  1.0089,                                 !- Year Escalation 2
  1.0089,                                 !- Year Escalation 3
  0.9941,                                 !- Year Escalation 4
  0.9941,                                 !- Year Escalation 5
  1.0000,                                 !- Year Escalation 6
  1.0030,                                 !- Year Escalation 7
  1.0059,                                 !- Year Escalation 8
  1.0089,                                 !- Year Escalation 9
  1.0119,                                 !- Year Escalation 10
  1.0148,                                 !- Year Escalation 11
  1.0178,                                 !- Year Escalation 12
  1.0208,                                 !- Year Escalation 13
  1.0267,                                 !- Year Escalation 14
  1.0297,                                 !- Year Escalation 15
  1.0356,                                 !- Year Escalation 16
  1.0415,                                 !- Year Escalation 17
  1.0534,                                 !- Year Escalation 18
  1.0564,                                 !- Year Escalation 19
  1.0593,                                 !- Year Escalation 20
  1.0653,                                 !- Year Escalation 21
  1.0712,                                 !- Year Escalation 22
  1.0742,                                 !- Year Escalation 23
  1.0801,                                 !- Year Escalation 24
  1.0831,                                 !- Year Escalation 25
  1.0831,                                 !- Year Escalation 26
  1.0861,                                 !- Year Escalation 27
  1.0890,                                 !- Year Escalation 28
  1.0920,                                 !- Year Escalation 29
  1.0950;                                 !- Year Escalation 30

Building,
  test_building,                          !- Name
  0,                                      !- North Axis {deg}
  ,                                       !- Terrain
  0.04,                                   !- Loads Convergence Tolerance Value
  0.4,                                    !- Temperature Convergence Tolerance Value {deltaC}
  FullInteriorAndExterior,                !- Solar Distribution
  25,                                     !- Maximum Number of Warmup Days
  6;                                      !- Minimum Number of Warmup Days

Zone,
  Block Dining: Cafeteria/fast food_east_zone Storey 0 Thermal Zone, !- Name
  0,                                      !- Direction of Relative North {deg}
  0,                                      !- X Origin {m}
  0,                                      !- Y Origin {m}
  0,                                      !- Z Origin {m}
  ,                                       !- Type
  1,                                      !- Multiplier
  ,                                       !- Ceiling Height {m}
  ,                                       !- Volume {m3}
  ,                                       !- Floor Area {m2}
  ,                                       !- Zone Inside Convection Algorithm
  ,                                       !- Zone Outside Convection Algorithm
  Yes;                                    !- Part of Total Floor Area

ZoneHVAC:EquipmentConnections,
  Block Dining: Cafeteria/fast food_east_zone Storey 0 Thermal Zone, !- Zone Name
  Block Dining: Cafeteria/fast food_east_zone Storey 0 Thermal Zone Equipment List, !- Zone Conditioning Equipment List Name
  Block Dining: Cafeteria/fast food_east_zone Storey 0 Thermal Zone Inlet Node List, !- Zone Air Inlet Node or NodeList Name
  ,                                       !- Zone Air Exhaust Node or NodeList Name
  Block Dining: Cafeteria/fast food_east_zone Storey 0 Thermal Zone Zone Air Node, !- Zone Air Node Name
  Block Dining: Cafeteria/fast food_east_zone Storey 0 Thermal Zone Return Node List; !- Zone Return Air Node or NodeList Name

NodeList,
  Block Dining: Cafeteria/fast food_east_zone Storey 0 Thermal Zone Inlet Node List, !- Name
  Block Dining: Cafeteria/fast food_east_zone Storey 0 Thermal Zone PSZ-AC Diffuser Outlet Air Node; !- Node Name 1

NodeList,
  Block Dining: Cafeteria/fast food_east_zone Storey 0 Thermal Zone Return Node List, !- Name
  Block Dining: Cafeteria/fast food_east_zone Storey 0 Thermal Zone Return Air Node; !- Node Name 1

AirTerminal:SingleDuct:ConstantVolume:NoReheat,
  Block Dining: Cafeteria/fast food_east_zone Storey 0 Thermal Zone PSZ-AC Diffuser, !- Name
  Always On Discrete,                     !- Availability Schedule Name
  Block Dining: Cafeteria/fast food_east_zone Storey 0 Thermal Zone PSZ-AC Diffuser Inlet Air Node, !- Air Inlet Node Name
  Block Dining: Cafeteria/fast food_east_zone Storey 0 Thermal Zone PSZ-AC Diffuser Outlet Air Node, !- Air Outlet Node Name
  AutoSize;                               !- Maximum Air Flow Rate {m3/s}

ZoneHVAC:AirDistributionUnit,
  ADU Block Dining: Cafeteria/fast food_east_zone Storey 0 Thermal Zone PSZ-AC Diffuser, !- Name
  Block Dining: Cafeteria/fast food_east_zone Storey 0 Thermal Zone PSZ-AC Diffuser Outlet Air Node, !- Air Distribution Unit Outlet Node Name
  AirTerminal:SingleDuct:ConstantVolume:NoReheat, !- Air Terminal Object Type
  Block Dining: Cafeteria/fast food_east_zone Storey 0 Thermal Zone PSZ-AC Diffuser; !- Air Terminal Name

ZoneHVAC:EquipmentList,
  Block Dining: Cafeteria/fast food_east_zone Storey 0 Thermal Zone Equipment List, !- Name
  SequentialLoad,                         !- Load Distribution Scheme
  ZoneHVAC:AirDistributionUnit,           !- Zone Equipment Object Type 1
  ADU Block Dining: Cafeteria/fast food_east_zone Storey 0 Thermal Zone PSZ-AC Diffuser, !- Zone Equipment Name 1
  1,                                      !- Zone Equipment Cooling Sequence 1
  1;                                      !- Zone Equipment Heating or No-Load Sequence 1

Sizing:Zone,
  Block Dining: Cafeteria/fast food_east_zone Storey 0 Thermal Zone, !- Zone or ZoneList Name
  SupplyAirTemperature,                   !- Zone Cooling Design Supply Air Temperature Input Method
  12.7777777777778,                       !- Zone Cooling Design Supply Air Temperature {C}
  11.11,                                  !- Zone Cooling Design Supply Air Temperature Difference {deltaC}
  SupplyAirTemperature,                   !- Zone Heating Design Supply Air Temperature Input Method
  50.0000000000001,                       !- Zone Heating Design Supply Air Temperature {C}
  11.11,                                  !- Zone Heating Design Supply Air Temperature Difference {deltaC}
  0.0085,                                 !- Zone Cooling Design Supply Air Humidity Ratio {kgWater/kgDryAir}
  0.008,                                  !- Zone Heating Design Supply Air Humidity Ratio {kgWater/kgDryAir}
  ,                                       !- Design Specification Outdoor Air Object Name
  ,                                       !- Zone Heating Sizing Factor
  ,                                       !- Zone Cooling Sizing Factor
  DesignDay,                              !- Cooling Design Air Flow Method
  0,                                      !- Cooling Design Air Flow Rate {m3/s}
  0.000762,                               !- Cooling Minimum Air Flow per Zone Floor Area {m3/s-m2}
  0,                                      !- Cooling Minimum Air Flow {m3/s}
  0,                                      !- Cooling Minimum Air Flow Fraction
  DesignDay,                              !- Heating Design Air Flow Method
  0,                                      !- Heating Design Air Flow Rate {m3/s}
  0.002032,                               !- Heating Maximum Air Flow per Zone Floor Area {m3/s-m2}
  0.1415762,                              !- Heating Maximum Air Flow {m3/s}
  0.3,                                    !- Heating Maximum Air Flow Fraction
  Block Dining: Cafeteria/fast food_east_zone Storey 0 Thermal Zone Design Spec Zone Air Dist, !- Design Specification Zone Air Distribution Object Name
  No;                                     !- Account for Dedicated Outdoor Air System

DesignSpecification:ZoneAirDistribution,
  Block Dining: Cafeteria/fast food_east_zone Storey 0 Thermal Zone Design Spec Zone Air Dist, !- Name
  1,                                      !- Zone Air Distribution Effectiveness in Cooling Mode {dimensionless}
  1;                                      !- Zone Air Distribution Effectiveness in Heating Mode {dimensionless}

Schedule:Constant,
  Always On Discrete,                     !- Name
  OnOff,                                  !- Schedule Type Limits Name
  1;                                      !- Hourly Value

Controller:MechanicalVentilation,
  Controller Mechanical Ventilation 1,    !- Name
  Always On Discrete,                     !- Availability Schedule Name
  No,                                     !- Demand Controlled Ventilation
  ZoneSum,                                !- System Outdoor Air Method
  ,                                       !- Zone Maximum Outdoor Air Fraction {dimensionless}
  Block Dining: Cafeteria/fast food_east_zone Storey 0 Thermal Zone, !- Zone Name 1
  ,                                       !- Design Specification Outdoor Air Object Name 1
  Block Dining: Cafeteria/fast food_east_zone Storey 0 Thermal Zone Design Spec Zone Air Dist; !- Design Specification Zone Air Distribution Object Name 1

Zone,
  Block Dining: Cafeteria/fast food_north_zone Storey 0 Thermal Zone, !- Name
  0,                                      !- Direction of Relative North {deg}
  0,                                      !- X Origin {m}
  0,                                      !- Y Origin {m}
  0,                                      !- Z Origin {m}
  ,                                       !- Type
  1,                                      !- Multiplier
  ,                                       !- Ceiling Height {m}
  ,                                       !- Volume {m3}
  ,                                       !- Floor Area {m2}
  ,                                       !- Zone Inside Convection Algorithm
  ,                                       !- Zone Outside Convection Algorithm
  Yes;                                    !- Part of Total Floor Area

ZoneHVAC:EquipmentConnections,
  Block Dining: Cafeteria/fast food_north_zone Storey 0 Thermal Zone, !- Zone Name
  Block Dining: Cafeteria/fast food_north_zone Storey 0 Thermal Zone Equipment List, !- Zone Conditioning Equipment List Name
  Block Dining: Cafeteria/fast food_north_zone Storey 0 Thermal Zone Inlet Node List, !- Zone Air Inlet Node or NodeList Name
  ,                                       !- Zone Air Exhaust Node or NodeList Name
  Block Dining: Cafeteria/fast food_north_zone Storey 0 Thermal Zone Zone Air Node, !- Zone Air Node Name
  Block Dining: Cafeteria/fast food_north_zone Storey 0 Thermal Zone Return Node List; !- Zone Return Air Node or NodeList Name

NodeList,
  Block Dining: Cafeteria/fast food_north_zone Storey 0 Thermal Zone Inlet Node List, !- Name
  Block Dining: Cafeteria/fast food_north_zone Storey 0 Thermal Zone PSZ-AC Diffuser Outlet Air Node; !- Node Name 1

NodeList,
  Block Dining: Cafeteria/fast food_north_zone Storey 0 Thermal Zone Return Node List, !- Name
  Block Dining: Cafeteria/fast food_north_zone Storey 0 Thermal Zone Return Air Node; !- Node Name 1

AirTerminal:SingleDuct:ConstantVolume:NoReheat,
  Block Dining: Cafeteria/fast food_north_zone Storey 0 Thermal Zone PSZ-AC Diffuser, !- Name
  Always On Discrete,                     !- Availability Schedule Name
  Block Dining: Cafeteria/fast food_north_zone Storey 0 Thermal Zone PSZ-AC Diffuser Inlet Air Node, !- Air Inlet Node Name
  Block Dining: Cafeteria/fast food_north_zone Storey 0 Thermal Zone PSZ-AC Diffuser Outlet Air Node, !- Air Outlet Node Name
  AutoSize;                               !- Maximum Air Flow Rate {m3/s}

ZoneHVAC:AirDistributionUnit,
  ADU Block Dining: Cafeteria/fast food_north_zone Storey 0 Thermal Zone PSZ-AC Diffuser, !- Name
  Block Dining: Cafeteria/fast food_north_zone Storey 0 Thermal Zone PSZ-AC Diffuser Outlet Air Node, !- Air Distribution Unit Outlet Node Name
  AirTerminal:SingleDuct:ConstantVolume:NoReheat, !- Air Terminal Object Type
  Block Dining: Cafeteria/fast food_north_zone Storey 0 Thermal Zone PSZ-AC Diffuser; !- Air Terminal Name

ZoneHVAC:EquipmentList,
  Block Dining: Cafeteria/fast food_north_zone Storey 0 Thermal Zone Equipment List, !- Name
  SequentialLoad,                         !- Load Distribution Scheme
  ZoneHVAC:AirDistributionUnit,           !- Zone Equipment Object Type 1
  ADU Block Dining: Cafeteria/fast food_north_zone Storey 0 Thermal Zone PSZ-AC Diffuser, !- Zone Equipment Name 1
  1,                                      !- Zone Equipment Cooling Sequence 1
  1;                                      !- Zone Equipment Heating or No-Load Sequence 1

Sizing:Zone,
  Block Dining: Cafeteria/fast food_north_zone Storey 0 Thermal Zone, !- Zone or ZoneList Name
  SupplyAirTemperature,                   !- Zone Cooling Design Supply Air Temperature Input Method
  12.7777777777778,                       !- Zone Cooling Design Supply Air Temperature {C}
  11.11,                                  !- Zone Cooling Design Supply Air Temperature Difference {deltaC}
  SupplyAirTemperature,                   !- Zone Heating Design Supply Air Temperature Input Method
  50.0000000000001,                       !- Zone Heating Design Supply Air Temperature {C}
  11.11,                                  !- Zone Heating Design Supply Air Temperature Difference {deltaC}
  0.0085,                                 !- Zone Cooling Design Supply Air Humidity Ratio {kgWater/kgDryAir}
  0.008,                                  !- Zone Heating Design Supply Air Humidity Ratio {kgWater/kgDryAir}
  ,                                       !- Design Specification Outdoor Air Object Name
  ,                                       !- Zone Heating Sizing Factor
  ,                                       !- Zone Cooling Sizing Factor
  DesignDay,                              !- Cooling Design Air Flow Method
  0,                                      !- Cooling Design Air Flow Rate {m3/s}
  0.000762,                               !- Cooling Minimum Air Flow per Zone Floor Area {m3/s-m2}
  0,                                      !- Cooling Minimum Air Flow {m3/s}
  0,                                      !- Cooling Minimum Air Flow Fraction
  DesignDay,                              !- Heating Design Air Flow Method
  0,                                      !- Heating Design Air Flow Rate {m3/s}
  0.002032,                               !- Heating Maximum Air Flow per Zone Floor Area {m3/s-m2}
  0.1415762,                              !- Heating Maximum Air Flow {m3/s}
  0.3,                                    !- Heating Maximum Air Flow Fraction
  Block Dining: Cafeteria/fast food_north_zone Storey 0 Thermal Zone Design Spec Zone Air Dist, !- Design Specification Zone Air Distribution Object Name
  No;                                     !- Account for Dedicated Outdoor Air System

DesignSpecification:ZoneAirDistribution,
  Block Dining: Cafeteria/fast food_north_zone Storey 0 Thermal Zone Design Spec Zone Air Dist, !- Name
  1,                                      !- Zone Air Distribution Effectiveness in Cooling Mode {dimensionless}
  1;                                      !- Zone Air Distribution Effectiveness in Heating Mode {dimensionless}

Controller:MechanicalVentilation,
  Controller Mechanical Ventilation 2,    !- Name
  Always On Discrete,                     !- Availability Schedule Name
  No,                                     !- Demand Controlled Ventilation
  ZoneSum,                                !- System Outdoor Air Method
  ,                                       !- Zone Maximum Outdoor Air Fraction {dimensionless}
  Block Dining: Cafeteria/fast food_north_zone Storey 0 Thermal Zone, !- Zone Name 1
  ,                                       !- Design Specification Outdoor Air Object Name 1
  Block Dining: Cafeteria/fast food_north_zone Storey 0 Thermal Zone Design Spec Zone Air Dist; !- Design Specification Zone Air Distribution Object Name 1

Zone,
  Block Dining: Cafeteria/fast food_south_zone Storey 0 Thermal Zone, !- Name
  0,                                      !- Direction of Relative North {deg}
  0,                                      !- X Origin {m}
  0,                                      !- Y Origin {m}
  0,                                      !- Z Origin {m}
  ,                                       !- Type
  1,                                      !- Multiplier
  ,                                       !- Ceiling Height {m}
  ,                                       !- Volume {m3}
  ,                                       !- Floor Area {m2}
  ,                                       !- Zone Inside Convection Algorithm
  ,                                       !- Zone Outside Convection Algorithm
  Yes;                                    !- Part of Total Floor Area

ZoneHVAC:EquipmentConnections,
  Block Dining: Cafeteria/fast food_south_zone Storey 0 Thermal Zone, !- Zone Name
  Block Dining: Cafeteria/fast food_south_zone Storey 0 Thermal Zone Equipment List, !- Zone Conditioning Equipment List Name
  Block Dining: Cafeteria/fast food_south_zone Storey 0 Thermal Zone Inlet Node List, !- Zone Air Inlet Node or NodeList Name
  ,                                       !- Zone Air Exhaust Node or NodeList Name
  Block Dining: Cafeteria/fast food_south_zone Storey 0 Thermal Zone Zone Air Node, !- Zone Air Node Name
  Block Dining: Cafeteria/fast food_south_zone Storey 0 Thermal Zone Return Node List; !- Zone Return Air Node or NodeList Name

NodeList,
  Block Dining: Cafeteria/fast food_south_zone Storey 0 Thermal Zone Inlet Node List, !- Name
  Block Dining: Cafeteria/fast food_south_zone Storey 0 Thermal Zone PSZ-AC Diffuser Outlet Air Node; !- Node Name 1

NodeList,
  Block Dining: Cafeteria/fast food_south_zone Storey 0 Thermal Zone Return Node List, !- Name
  Block Dining: Cafeteria/fast food_south_zone Storey 0 Thermal Zone Return Air Node; !- Node Name 1

AirTerminal:SingleDuct:ConstantVolume:NoReheat,
  Block Dining: Cafeteria/fast food_south_zone Storey 0 Thermal Zone PSZ-AC Diffuser, !- Name
  Always On Discrete,                     !- Availability Schedule Name
  Block Dining: Cafeteria/fast food_south_zone Storey 0 Thermal Zone PSZ-AC Diffuser Inlet Air Node, !- Air Inlet Node Name
  Block Dining: Cafeteria/fast food_south_zone Storey 0 Thermal Zone PSZ-AC Diffuser Outlet Air Node, !- Air Outlet Node Name
  AutoSize;                               !- Maximum Air Flow Rate {m3/s}

ZoneHVAC:AirDistributionUnit,
  ADU Block Dining: Cafeteria/fast food_south_zone Storey 0 Thermal Zone PSZ-AC Diffuser, !- Name
  Block Dining: Cafeteria/fast food_south_zone Storey 0 Thermal Zone PSZ-AC Diffuser Outlet Air Node, !- Air Distribution Unit Outlet Node Name
  AirTerminal:SingleDuct:ConstantVolume:NoReheat, !- Air Terminal Object Type
  Block Dining: Cafeteria/fast food_south_zone Storey 0 Thermal Zone PSZ-AC Diffuser; !- Air Terminal Name

ZoneHVAC:EquipmentList,
  Block Dining: Cafeteria/fast food_south_zone Storey 0 Thermal Zone Equipment List, !- Name
  SequentialLoad,                         !- Load Distribution Scheme
  ZoneHVAC:AirDistributionUnit,           !- Zone Equipment Object Type 1
  ADU Block Dining: Cafeteria/fast food_south_zone Storey 0 Thermal Zone PSZ-AC Diffuser, !- Zone Equipment Name 1
  1,                                      !- Zone Equipment Cooling Sequence 1
  1;                                      !- Zone Equipment Heating or No-Load Sequence 1

Sizing:Zone,