!- Unix Line endings 

Version,
    9.0;                      !- Version Identifier

SimulationControl,
    Yes,                      !- Do Zone Sizing Calculation
    Yes,                      !- Do System Sizing Calculation
    Yes,                      !- Do Plant Sizing Calculation
    Yes,                      !- Run Simulation for Sizing Periods
    Yes;                      !- Run Simulation for Weather File Run Periods

Building,
    test_building,            !- Name
    0,                        !- North Axis
    Suburbs,                  !- Terrain
    0.04,                     !- Loads Convergence Tolerance Value
    0.4,                      !- Temperature Convergence Tolerance Value
    FullInteriorAndExterior,    !- Solar Distribution
    25,                       !- Maximum Number of Warmup Days
    6;                        !- Minimum Number of Warmup Days

Timestep,
    6;                        !- Number of Timesteps per Hour

SizingPeriod:DesignDay,
    DENVER_STAPLETON Ann Htg 99.6% Condns DB,    !- Name
    12,                       !- Month
    21,                       !- Day of Month
    WinterDesignDay,          !- Day Type
    -20,                      !- Maximum DryBulb Temperature
    0,                        !- Daily DryBulb Temperature Range
    ,                         !- DryBulb Temperature Range Modifier Type
    ,                         !- DryBulb Temperature Range Modifier Day Schedule Name
    Wetbulb,                  !- Humidity Condition Type
    -20,                      !- Wetbulb or DewPoint at Maximum DryBulb
    ,                         !- Humidity Condition Day Schedule Name
    ,                         !- Humidity Ratio at Maximum DryBulb
    ,                         !- Enthalpy at Maximum DryBulb
    ,                         !- Daily WetBulb Temperature Range
    83411,                    !- Barometric Pressure
    2.3,                      !- Wind Speed
    180,                      !- Wind Direction
    No,                       !- Rain Indicator
    No,                       !- Snow Indicator
    No,                       !- Daylight Saving Time Indicator
    ASHRAEClearSky,           !- Solar Model Indicator
    ,                         !- Beam Solar Day Schedule Name
    ,                         !- Diffuse Solar Day Schedule Name
    ,                         !- ASHRAE Clear Sky Optical Depth for Beam Irradiance taub
    ,                         !- ASHRAE Clear Sky Optical Depth for Diffuse Irradiance taud
    0;                        !- Sky Clearness

SizingPeriod:DesignDay,
    DENVER_STAPLETON Ann Clg .4% Condns DB=>MWB,    !- Name
    7,                        !- Month
    21,                       !- Day of Month
    SummerDesignDay,          !- Day Type
    34.1,                     !- Maximum DryBulb Temperature
    15.2,                     !- Daily DryBulb Temperature Range
    ,                         !- DryBulb Temperature Range Modifier Type
    ,                         !- DryBulb Temperature Range Modifier Day Schedule Name
    Wetbulb,                  !- Humidity Condition Type
    15.8,                     !- Wetbulb or DewPoint at Maximum DryBulb
    ,                         !- Humidity Condition Day Schedule Name
    ,                         !- Humidity Ratio at Maximum DryBulb
    ,                         !- Enthalpy at Maximum DryBulb
    ,                         !- Daily WetBulb Temperature Range
    83411,                    !- Barometric Pressure
    4,                        !- Wind Speed
    120,                      !- Wind Direction
    No,                       !- Rain Indicator
    No,                       !- Snow Indicator
    No,                       !- Daylight Saving Time Indicator
    ASHRAEClearSky,           !- Solar Model Indicator
    ,                         !- Beam Solar Day Schedule Name
    ,                         !- Diffuse Solar Day Schedule Name
    ,                         !- ASHRAE Clear Sky Optical Depth for Beam Irradiance taub
    ,                         !- ASHRAE Clear Sky Optical Depth for Diffuse Irradiance taud
    1;                        !- Sky Clearness

RunPeriod,
    ,                         !- Name
    1,                        !- Begin Month
    1,                        !- Begin Day of Month
    ,                         !- Begin Year
    12,                       !- End Month
    31,                       !- End Day of Month
    ,                         !- End Year
    Sunday,                   !- Day of Week for Start Day
    Yes,                      !- Use Weather File Holidays and Special Days
    Yes,                      !- Use Weather File Daylight Saving Period
    No,                       !- Apply Weekend Holiday Rule
    Yes,                      !- Use Weather File Rain Indicators
    Yes;                      !- Use Weather File Snow Indicators

SITE:GROUNDTEMPERATURE:FCFACTORMETHOD,
    20.9,                     !- January Ground Temperature
    15.4,                     !- February Ground Temperature
    11.9,                     !- March Ground Temperature
    14.8,                     !- April Ground Temperature
    12.7,                     !- May Ground Temperature
    15.4,                     !- June Ground Temperature
    23.3,                     !- July Ground Temperature
    26.3,                     !- August Ground Temperature
    31.2,                     !- September Ground Temperature
    30.4,                     !- October Ground Temperature
    29.8,                     !- November Ground Temperature
    27.8;                     !- December Ground Temperature

ScheduleTypeLimits,
    Any Number,               !- Name
    ,                         !- Lower Limit Value
    ,                         !- Upper Limit Value
    ,                         !- Numeric Type
    Dimensionless;            !- Unit Type

MATERIAL,
    g01_13mm_gypsum_board,    !- Name
    Smooth,                   !- Roughness
    0.0127,                   !- Thickness
    0.16,                     !- Conductivity
    800,                      !- Density
    1090,                     !- Specific Heat
    0.9,                      !- Thermal Absorptance
    0.7,                      !- Solar Absorptance
    0.5;                      !- Visible Absorptance

MATERIAL,
    100mm_normalweight_concrete_floor,    !- Name
    MediumRough,              !- Roughness
    0.1016,                   !- Thickness
    2.31,                     !- Conductivity
    2322,                     !- Density
    832,                      !- Specific Heat
    0.9,                      !- Thermal Absorptance
    0.7,                      !- Solar Absorptance
    0.7;                      !- Visible Absorptance

MATERIAL,
    f07_25mm_stucco,          !- Name
    Smooth,                   !- Roughness
    0.0254,                   !- Thickness
    0.72,                     !- Conductivity
    1856,                     !- Density
    840,                      !- Specific Heat
    0.9,                      !- Thermal Absorptance
    0.7,                      !- Solar Absorptance
    0.7;                      !- Visible Absorptance

MATERIAL,
    g01_16mm_gypsum_board,    !- Name
    MediumSmooth,             !- Roughness
    0.0159,                   !- Thickness
    0.16,                     !- Conductivity
    800,                      !- Density
    1090,                     !- Specific Heat
    0.9,                      !- Thermal Absorptance
    0.7,                      !- Solar Absorptance
    0.7;                      !- Visible Absorptance

MATERIAL,
    f12_asphalt_shingles,     !- Name
    VeryRough,                !- Roughness
    0.0032,                   !- Thickness
    0.04,                     !- Conductivity
    1120,                     !- Density
    1260,                     !- Specific Heat
    0.9,                      !- Thermal Absorptance
    0.7,                      !- Solar Absorptance
    0.7;                      !- Visible Absorptance

MATERIAL,
    g02_16mm_plywood,         !- Name
    Smooth,                   !- Roughness
    0.0159,                   !- Thickness
    0.12,                     !- Conductivity
    544,                      !- Density
    1210,                     !- Specific Heat
    0.9,                      !- Thermal Absorptance
    0.7,                      !- Solar Absorptance
    0.7;                      !- Visible Absorptance

MATERIAL:NOMASS,
    cp02_carpet_pad,          !- Name
    VeryRough,                !- Roughness
    0.21648,                  !- Thermal Resistance
    0.9,                      !- Thermal Absorptance
    0.7,                      !- Solar Absorptance
    0.8;                      !- Visible Absorptance

MATERIAL:NOMASS,
    wall_ins_layer_R_0.7274,    !- Name
    VeryRough,                !- Roughness
    0.7274,                   !- Thermal Resistance
    0.9,                      !- Thermal Absorptance
    0.7,                      !- Solar Absorptance
    0.8;                      !- Visible Absorptance

MATERIAL:NOMASS,
    roof_ins_layer_R_1.9306,    !- Name
    VeryRough,                !- Roughness
    1.9306,                   !- Thermal Resistance
    0.9,                      !- Thermal Absorptance
    0.7,                      !- Solar Absorptance
    0.8;                      !- Visible Absorptance

WINDOWMATERIAL:SIMPLEGLAZINGSYSTEM,
    glazing_u_3.5205_shgc_0.4100,    !- Name
    3.5205230600000004,       !- UFactor
    0.41;                     !- Solar Heat Gain Coefficient

CONSTRUCTION,
    int_wall_default,         !- Name
    g01_13mm_gypsum_board,    !- Outside Layer
    g01_13mm_gypsum_board;    !- Layer 2

CONSTRUCTION,
    int_floor_default,        !- Name
    100mm_normalweight_concrete_floor,    !- Outside Layer
    cp02_carpet_pad;          !- Layer 2

CONSTRUCTION,
    int_ceiling_default,      !- Name
    cp02_carpet_pad,          !- Outside Layer
    100mm_normalweight_concrete_floor;    !- Layer 2

CONSTRUCTION,
    ext_wall_wood_framed,     !- Name
    f07_25mm_stucco,          !- Outside Layer
    g01_16mm_gypsum_board,    !- Layer 2
    wall_ins_layer_R_0.7274,    !- Layer 3
    g01_16mm_gypsum_board;    !- Layer 4

CONSTRUCTION,
    roof_attic_and_other,     !- Name
    f12_asphalt_shingles,     !- Outside Layer
    g02_16mm_plywood,         !- Layer 2
    roof_ins_layer_R_1.9306,    !- Layer 3
    g01_16mm_gypsum_board;    !- Layer 4

CONSTRUCTION,
    window_u_3.5205_shgc_0.4100,    !- Name
    glazing_u_3.5205_shgc_0.4100;    !- Outside Layer

CONSTRUCTION:FFACTORGROUNDFLOOR,
    Dining: Cafeteria/fast food_south_zone_perimeter_bottom_floor_ffactor,    !- Name
    1.3,                      !- FFactor
    71.1465133801917,         !- Area
    18.875956638221016;       !- PerimeterExposed

CONSTRUCTION:FFACTORGROUNDFLOOR,
    Dining: Cafeteria/fast food_west_zone_perimeter_bottom_floor_ffactor,    !- Name
    1.3,                      !- FFactor
    47.304862619808304,       !- Area
    12.550503083923546;       !- PerimeterExposed

CONSTRUCTION:FFACTORGROUNDFLOOR,
    Dining: Cafeteria/fast food_north_zone_perimeter_bottom_floor_ffactor,    !- Name
    1.3,                      !- FFactor
    71.1465133801917,         !- Area
    18.875956638221016;       !- PerimeterExposed

CONSTRUCTION:FFACTORGROUNDFLOOR,
    Dining: Cafeteria/fast food_east_zone_perimeter_bottom_floor_ffactor,    !- Name
    1.3,                      !- FFactor
    47.304862619808304,       !- Area
    12.550503083923546;       !- PerimeterExposed

GlobalGeometryRules,
    UpperLeftCorner,          !- Starting Vertex Position
    CounterClockWise,         !- Vertex Entry Direction
    World;                    !- Coordinate System

ZONE,
    Block Dining: Cafeteria/fast food_south_zone Storey 0,    !- Name
    0,                        !- Direction of Relative North
    0,                        !- X Origin
    0,                        !- Y Origin
    0,                        !- Z Origin
    1,                        !- Type
    1,                        !- Multiplier
    autocalculate,            !- Ceiling Height
    autocalculate,            !- Volume
    autocalculate,            !- Floor Area
    ,                         !- Zone Inside Convection Algorithm
    ,                         !- Zone Outside Convection Algorithm
    Yes;                      !- Part of Total Floor Area

ZONE,
    Block Dining: Cafeteria/fast food_west_zone Storey 0,    !- Name
    0,                        !- Direction of Relative North
    0,                        !- X Origin
    0,                        !- Y Origin
    0,                        !- Z Origin
    1,                        !- Type
    1,                        !- Multiplier
    autocalculate,            !- Ceiling Height
    autocalculate,            !- Volume
    autocalculate,            !- Floor Area
    ,                         !- Zone Inside Convection Algorithm
    ,                         !- Zone Outside Convection Algorithm
    Yes;                      !- Part of Total Floor Area

ZONE,
    Block Dining: Cafeteria/fast food_north_zone Storey 0,    !- Name
    0,                        !- Direction of Relative North
    0,                        !- X Origin
    0,                        !- Y Origin
    0,                        !- Z Origin
    1,                        !- Type
    1,                        !- Multiplier
    autocalculate,            !- Ceiling Height
    autocalculate,            !- Volume
    autocalculate,            !- Floor Area
    ,                         !- Zone Inside Convection Algorithm
    ,                         !- Zone Outside Convection Algorithm
    Yes;                      !- Part of Total Floor Area

ZONE,
    Block Dining: Cafeteria/fast food_east_zone Storey 0,    !- Name
    0,                        !- Direction of Relative North
    0,                        !- X Origin
    0,                        !- Y Origin
    0,                        !- Z Origin
    1,                        !- Type
    1,                        !- Multiplier
    autocalculate,            !- Ceiling Height
    autocalculate,            !- Volume
    autocalculate,            !- Floor Area
    ,                         !- Zone Inside Convection Algorithm
    ,                         !- Zone Outside Convection Algorithm
    Yes;                      !- Part of Total Floor Area

ZONELIST,
    zone_list_Dining: Cafeteria/fast food,    !- Name
    Block Dining: Cafeteria/fast food_south_zone Storey 0,    !- Zone 1 Name
    Block Dining: Cafeteria/fast food_west_zone Storey 0,    !- Zone 2 Name
    Block Dining: Cafeteria/fast food_north_zone Storey 0,    !- Zone 3 Name
    Block Dining: Cafeteria/fast food_east_zone Storey 0;    !- Zone 4 Name

BUILDINGSURFACE:DETAILED,
    Block Dining: Cafeteria/fast food_south_zone Storey 0 Wall 0001,    !- Name
    wall,                     !- Surface Type
    int_wall_default,         !- Construction Name
    Block Dining: Cafeteria/fast food_south_zone Storey 0,    !- Zone Name
    outdoors,                 !- Outside Boundary Condition
    ,                         !- Outside Boundary Condition Object
    SunExposed,               !- Sun Exposure
    WindExposed,              !- Wind Exposure
    autocalculate,            !- View Factor to Ground
    autocalculate,            !- Number of Vertices
    23.965831207760488,       !- Vertex 1 Xcoordinate
    0,                        !- Vertex 1 Ycoordinate
    3.6576000000000004,       !- Vertex 1 Zcoordinate
    23.965831207760488,       !- Vertex 2 Xcoordinate
    0,                        !- Vertex 2 Ycoordinate
    0,                        !- Vertex 2 Zcoordinate
    23.965831207760488,       !- Vertex 3 Xcoordinate
    3.7691606705712895,       !- Vertex 3 Ycoordinate
    0,                        !- Vertex 3 Zcoordinate
    23.965831207760488,       !- Vertex 4 Xcoordinate
    3.7691606705712895,       !- Vertex 4 Ycoordinate
    3.6576000000000004;       !- Vertex 4 Zcoordinate

BUILDINGSURFACE:DETAILED,
    Block Dining: Cafeteria/fast food_south_zone Storey 0 Wall 0002,    !- Name
    wall,                     !- Surface Type
    int_wall_default,         !- Construction Name
    Block Dining: Cafeteria/fast food_south_zone Storey 0,    !- Zone Name
    outdoors,                 !- Outside Boundary Condition
    ,                         !- Outside Boundary Condition Object
    SunExposed,               !- Sun Exposure
    WindExposed,              !- Wind Exposure
    autocalculate,            !- View Factor to Ground
    autocalculate,            !- Number of Vertices
    23.965831207760488,       !- Vertex 1 Xcoordinate
    3.7691606705712895,       !- Vertex 1 Ycoordinate
    3.6576000000000004,       !- Vertex 1 Zcoordinate
    23.965831207760488,       !- Vertex 2 Xcoordinate
    3.7691606705712895,       !- Vertex 2 Ycoordinate
    0,                        !- Vertex 2 Zcoordinate
    5.08987456953947,         !- Vertex 3 Xcoordinate
    3.7691606705712895,       !- Vertex 3 Ycoordinate
    0,                        !- Vertex 3 Zcoordinate
    5.08987456953947,         !- Vertex 4 Xcoordinate
    3.7691606705712895,       !- Vertex 4 Ycoordinate
    3.6576000000000004;       !- Vertex 4 Zcoordinate

BUILDINGSURFACE:DETAILED,
    Block Dining: Cafeteria/fast food_south_zone Storey 0 Wall 0003,    !- Name
    wall,                     !- Surface Type
    int_wall_default,         !- Construction Name
    Block Dining: Cafeteria/fast food_south_zone Storey 0,    !- Zone Name
    outdoors,                 !- Outside Boundary Condition
    ,                         !- Outside Boundary Condition Object
    SunExposed,               !- Sun Exposure
    WindExposed,              !- Wind Exposure
    autocalculate,            !- View Factor to Ground
    autocalculate,            !- Number of Vertices
    5.08987456953947,         !- Vertex 1 Xcoordinate
    3.7691606705712895,       !- Vertex 1 Ycoordinate
    3.6576000000000004,       !- Vertex 1 Zcoordinate
    5.08987456953947,         !- Vertex 2 Xcoordinate
    3.7691606705712895,       !- Vertex 2 Ycoordinate
    0,                        !- Vertex 2 Zcoordinate
    5.08987456953947,         !- Vertex 3 Xcoordinate
    0,                        !- Vertex 3 Ycoordinate
    0,                        !- Vertex 3 Zcoordinate
    5.08987456953947,         !- Vertex 4 Xcoordinate
    0,                        !- Vertex 4 Ycoordinate
    3.6576000000000004;       !- Vertex 4 Zcoordinate

BUILDINGSURFACE:DETAILED,
    Block Dining: Cafeteria/fast food_south_zone Storey 0 Wall 0004,    !- Name
    wall,                     !- Surface Type
    ext_wall_wood_framed,     !- Construction Name
    Block Dining: Cafeteria/fast food_south_zone Storey 0,    !- Zone Name
    outdoors,                 !- Outside Boundary Condition
    ,                         !- Outside Boundary Condition Object
    SunExposed,               !- Sun Exposure
    WindExposed,              !- Wind Exposure
    autocalculate,            !- View Factor to Ground
    autocalculate,            !- Number of Vertices
    5.08987456953947,         !- Vertex 1 Xcoordinate
    0,                        !- Vertex 1 Ycoordinate
    3.6576000000000004,       !- Vertex 1 Zcoordinate
    5.08987456953947,         !- Vertex 2 Xcoordinate
    0,                        !- Vertex 2 Ycoordinate
    0,                        !- Vertex 2 Zcoordinate
    23.965831207760488,       !- Vertex 3 Xcoordinate
    0,                        !- Vertex 3 Ycoordinate
    0,                        !- Vertex 3 Zcoordinate
    23.965831207760488,       !- Vertex 4 Xcoordinate
    0,                        !- Vertex 4 Ycoordinate
    3.6576000000000004;       !- Vertex 4 Zcoordinate

BUILDINGSURFACE:DETAILED,
    Block Dining: Cafeteria/fast food_south_zone Storey 0 Floor 0001,    !- Name
    floor,                    !- Surface Type
    Dining: Cafeteria/fast food_south_zone_perimeter_bottom_floor_ffactor,    !- Construction Name
    Block Dining: Cafeteria/fast food_south_zone Storey 0,    !- Zone Name
    GroundFCfactorMethod,     !- Outside Boundary Condition
    ,                         !- Outside Boundary Condition Object
    NoSun,                    !- Sun Exposure
    NoWind,                   !- Wind Exposure
    autocalculate,            !- View Factor to Ground
    autocalculate,            !- Number of Vertices
    23.965831207760488,       !- Vertex 1 Xcoordinate
    3.7691606705712895,       !- Vertex 1 Ycoordinate
    0,                        !- Vertex 1 Zcoordinate
    23.965831207760488,       !- Vertex 2 Xcoordinate
    0,                        !- Vertex 2 Ycoordinate
    0,                        !- Vertex 2 Zcoordinate
    5.08987456953947,         !- Vertex 3 Xcoordinate
    0,                        !- Vertex 3 Ycoordinate
    0,                        !- Vertex 3 Zcoordinate
    5.08987456953947,         !- Vertex 4 Xcoordinate
    3.7691606705712895,       !- Vertex 4 Ycoordinate
    0;                        !- Vertex 4 Zcoordinate

BUILDINGSURFACE:DETAILED,
    Block Dining: Cafeteria/fast food_south_zone Storey 0 Roof 0001,    !- Name
    roof,                     !- Surface Type
    roof_attic_and_other,     !- Construction Name
    Block Dining: Cafeteria/fast food_south_zone Storey 0,    !- Zone Name
    outdoors,                 !- Outside Boundary Condition
    ,                         !- Outside Boundary Condition Object
    SunExposed,               !- Sun Exposure
    WindExposed,              !- Wind Exposure
    autocalculate,            !- View Factor to Ground
    autocalculate,            !- Number of Vertices
    23.965831207760488,       !- Vertex 1 Xcoordinate
    0,                        !- Vertex 1 Ycoordinate
    3.6576000000000004,       !- Vertex 1 Zcoordinate
    23.965831207760488,       !- Vertex 2 Xcoordinate
    3.7691606705712895,       !- Vertex 2 Ycoordinate
    3.6576000000000004,       !- Vertex 2 Zcoordinate
    5.08987456953947,         !- Vertex 3 Xcoordinate
    3.7691606705712895,       !- Vertex 3 Ycoordinate
    3.6576000000000004,       !- Vertex 3 Zcoordinate
    5.08987456953947,         !- Vertex 4 Xcoordinate
    0,                        !- Vertex 4 Ycoordinate
    3.6576000000000004;       !- Vertex 4 Zcoordinate

BUILDINGSURFACE:DETAILED,
    Block Dining: Cafeteria/fast food_west_zone Storey 0 Wall 0001,    !- Name
    wall,                     !- Surface Type
    int_wall_default,         !- Construction Name
    Block Dining: Cafeteria/fast food_west_zone Storey 0,    !- Zone Name
    outdoors,                 !- Outside Boundary Condition
    ,                         !- Outside Boundary Condition Object
    SunExposed,               !- Sun Exposure
    WindExposed,              !- Wind Exposure
    autocalculate,            !- View Factor to Ground
    autocalculate,            !- Number of Vertices
    3.769160670571289,        !- Vertex 1 Xcoordinate
    4.773601891824597,        !- Vertex 1 Ycoordinate
    3.6576000000000004,       !- Vertex 1 Zcoordinate
    3.769160670571289,        !- Vertex 2 Xcoordinate
    4.773601891824597,        !- Vertex 2 Ycoordinate
    0,                        !- Vertex 2 Zcoordinate
    3.769160670571289,        !- Vertex 3 Xcoordinate
    17.324104975748142,       !- Vertex 3 Ycoordinate
    0,                        !- Vertex 3 Zcoordinate
    3.769160670571289,        !- Vertex 4 Xcoordinate
    17.324104975748142,       !- Vertex 4 Ycoordinate
    3.6576000000000004;       !- Vertex 4 Zcoordinate

BUILDINGSURFACE:DETAILED,
    Block Dining: Cafeteria/fast food_west_zone Storey 0 Wall 0002,    !- Name
    wall,                     !- Surface Type
    int_wall_default,         !- Construction Name
    Block Dining: Cafeteria/fast food_west_zone Storey 0,    !- Zone Name
    outdoors,                 !- Outside Boundary Condition
    ,                         !- Outside Boundary Condition Object
    SunExposed,               !- Sun Exposure
    WindExposed,              !- Wind Exposure
    autocalculate,            !- View Factor to Ground
    autocalculate,            !- Number of Vertices
    3.769160670571289,        !- Vertex 1 Xcoordinate
    17.324104975748142,       !- Vertex 1 Ycoordinate
    3.6576000000000004,       !- Vertex 1 Zcoordinate
    3.769160670571289,        !- Vertex 2 Xcoordinate
    17.324104975748142,       !- Vertex 2 Ycoordinate
    0,                        !- Vertex 2 Zcoordinate
    0,                        !- Vertex 3 Xcoordinate
    17.324104975748142,       !- Vertex 3 Ycoordinate
    0,                        !- Vertex 3 Zcoordinate
    0,                        !- Vertex 4 Xcoordinate
    17.324104975748142,       !- Vertex 4 Ycoordinate
    3.6576000000000004;       !- Vertex 4 Zcoordinate

BUILDINGSURFACE:DETAILED,
    Block Dining: Cafeteria/fast food_west_zone Storey 0 Wall 0003,    !- Name
    wall,                     !- Surface Type
    ext_wall_wood_framed,     !- Construction Name
    Block Dining: Cafeteria/fast food_west_zone Storey 0,    !- Zone Name
    outdoors,                 !- Outside Boundary Condition
    ,                         !- Outside Boundary Condition Object
    SunExposed,               !- Sun Exposure
    WindExposed,              !- Wind Exposure
    autocalculate,            !- View Factor to Ground
    autocalculate,            !- Number of Vertices
    0,                        !- Vertex 1 Xcoordinate
    17.324104975748142,       !- Vertex 1 Ycoordinate
    3.6576000000000004,       !- Vertex 1 Zcoordinate
    0,                        !- Vertex 2 Xcoordinate
    17.324104975748142,       !- Vertex 2 Ycoordinate
    0,                        !- Vertex 2 Zcoordinate
    0,                        !- Vertex 3 Xcoordinate
    4.773601891824597,        !- Vertex 3 Ycoordinate
    0,                        !- Vertex 3 Zcoordinate
    0,                        !- Vertex 4 Xcoordinate
    4.773601891824597,        !- Vertex 4 Ycoordinate
    3.6576000000000004;       !- Vertex 4 Zcoordinate

BUILDINGSURFACE:DETAILED,
    Block Dining: Cafeteria/fast food_west_zone Storey 0 Wall 0004,    !- Name
    wall,                     !- Surface Type
    int_wall_default,         !- Construction Name
    Block Dining: Cafeteria/fast food_west_zone Storey 0,    !- Zone Name
    outdoors,                 !- Outside Boundary Condition
    ,                         !- Outside Boundary Condition Object
    SunExposed,               !- Sun Exposure
    WindExposed,              !- Wind Exposure
    autocalculate,            !- View Factor to Ground
    autocalculate,            !- Number of Vertices
    0,                        !- Vertex 1 Xcoordinate
    4.773601891824597,        !- Vertex 1 Ycoordinate
    3.6576000000000004,       !- Vertex 1 Zcoordinate
    0,                        !- Vertex 2 Xcoordinate
    4.773601891824597,        !- Vertex 2 Ycoordinate
    0,                        !- Vertex 2 Zcoordinate
    3.769160670571289,        !- Vertex 3 Xcoordinate
    4.773601891824597,        !- Vertex 3 Ycoordinate
    0,                        !- Vertex 3 Zcoordinate
    3.769160670571289,        !- Vertex 4 Xcoordinate
    4.773601891824597,        !- Vertex 4 Ycoordinate
    3.6576000000000004;       !- Vertex 4 Zcoordinate

BUILDINGSURFACE:DETAILED,
    Block Dining: Cafeteria/fast food_west_zone Storey 0 Floor 0001,    !- Name
    floor,                    !- Surface Type
    Dining: Cafeteria/fast food_west_zone_perimeter_bottom_floor_ffactor,    !- Construction Name
    Block Dining: Cafeteria/fast food_west_zone Storey 0,    !- Zone Name
    GroundFCfactorMethod,     !- Outside Boundary Condition
    ,                         !- Outside Boundary Condition Object
    NoSun,                    !- Sun Exposure
    NoWind,                   !- Wind Exposure
    autocalculate,            !- View Factor to Ground
    autocalculate,            !- Number of Vertices
    3.769160670571289,        !- Vertex 1 Xcoordinate
    17.324104975748142,       !- Vertex 1 Ycoordinate
    0,                        !- Vertex 1 Zcoordinate
    3.769160670571289,        !- Vertex 2 Xcoordinate
    4.773601891824597,        !- Vertex 2 Ycoordinate
    0,                        !- Vertex 2 Zcoordinate
    0,                        !- Vertex 3 Xcoordinate
    4.773601891824597,        !- Vertex 3 Ycoordinate
    0,                        !- Vertex 3 Zcoordinate
    0,                        !- Vertex 4 Xcoordinate
    17.324104975748142,       !- Vertex 4 Ycoordinate
    0;                        !- Vertex 4 Zcoordinate

BUILDINGSURFACE:DETAILED,
    Block Dining: Cafeteria/fast food_west_zone Storey 0 Roof 0001,    !- Name
    roof,                     !- Surface Type
    roof_attic_and_other,     !- Construction Name
    Block Dining: Cafeteria/fast food_west_zone Storey 0,    !- Zone Name
    outdoors,                 !- Outside Boundary Condition
    ,                         !- Outside Boundary Condition Object
    SunExposed,               !- Sun Exposure
    WindExposed,              !- Wind Exposure
    autocalculate,            !- View Factor to Ground
    autocalculate,            !- Number of Vertices
    3.769160670571289,        !- Vertex 1 Xcoordinate
    4.773601891824597,        !- Vertex 1 Ycoordinate
    3.6576000000000004,       !- Vertex 1 Zcoordinate
    3.769160670571289,        !- Vertex 2 Xcoordinate
    17.324104975748142,       !- Vertex 2 Ycoordinate
    3.6576000000000004,       !- Vertex 2 Zcoordinate
    0,                        !- Vertex 3 Xcoordinate
    17.324104975748142,       !- Vertex 3 Ycoordinate
    3.6576000000000004,       !- Vertex 3 Zcoordinate
    0,                        !- Vertex 4 Xcoordinate
    4.773601891824597,        !- Vertex 4 Ycoordinate
    3.6576000000000004;       !- Vertex 4 Zcoordinate

BUILDINGSURFACE:DETAILED,