!- Unix Line endings 

Version,
    9.0;                      !- Version Identifier

SimulationControl,
    Yes,                      !- Do Zone Sizing Calculation
    Yes,                      !- Do System Sizing Calculation
    Yes,                      !- Do Plant Sizing Calculation
    Yes,                      !- Run Simulation for Sizing Periods
    Yes;                      !- Run Simulation for Weather File Run Periods

Building,
    test_building,            !- Name
    0,                        !- North Axis
    Suburbs,                  !- Terrain
    0.04,                     !- Loads Convergence Tolerance Value
    0.4,                      !- Temperature Convergence Tolerance Value
    FullInteriorAndExterior,    !- Solar Distribution
    25,                       !- Maximum Number of Warmup Days
    6;                        !- Minimum Number of Warmup Days

Timestep,
    6;                        !- Number of Timesteps per Hour

SizingPeriod:DesignDay,
    DENVER_STAPLETON Ann Htg 99.6% Condns DB,    !- Name
    12,                       !- Month
    21,                       !- Day of Month
    WinterDesignDay,          !- Day Type
    -20,                      !- Maximum DryBulb Temperature
    0,                        !- Daily DryBulb Temperature Range
    ,                         !- DryBulb Temperature Range Modifier Type
    ,                         !- DryBulb Temperature Range Modifier Day Schedule Name
    Wetbulb,                  !- Humidity Condition Type
    -20,                      !- Wetbulb or DewPoint at Maximum DryBulb
    ,                         !- Humidity Condition Day Schedule Name
    ,                         !- Humidity Ratio at Maximum DryBulb
    ,                         !- Enthalpy at Maximum DryBulb
    ,                         !- Daily WetBulb Temperature Range
    83411,                    !- Barometric Pressure
    2.3,                      !- Wind Speed
    180,                      !- Wind Direction
    No,                       !- Rain Indicator
    No,                       !- Snow Indicator
    No,                       !- Daylight Saving Time Indicator
    ASHRAEClearSky,           !- Solar Model Indicator
    ,                         !- Beam Solar Day Schedule Name
    ,                         !- Diffuse Solar Day Schedule Name
    ,                         !- ASHRAE Clear Sky Optical Depth for Beam Irradiance taub
    ,                         !- ASHRAE Clear Sky Optical Depth for Diffuse Irradiance taud
    0;                        !- Sky Clearness

SizingPeriod:DesignDay,
    DENVER_STAPLETON Ann Clg .4% Condns DB=>MWB,    !- Name
    7,                        !- Month
    21,                       !- Day of Month
    SummerDesignDay,          !- Day Type
    34.1,                     !- Maximum DryBulb Temperature
    15.2,                     !- Daily DryBulb Temperature Range
    ,                         !- DryBulb Temperature Range Modifier Type
    ,                         !- DryBulb Temperature Range Modifier Day Schedule Name
    Wetbulb,                  !- Humidity Condition Type
    15.8,                     !- Wetbulb or DewPoint at Maximum DryBulb
    ,                         !- Humidity Condition Day Schedule Name
    ,                         !- Humidity Ratio at Maximum DryBulb
    ,                         !- Enthalpy at Maximum DryBulb
    ,                         !- Daily WetBulb Temperature Range
    83411,                    !- Barometric Pressure
    4,                        !- Wind Speed
    120,                      !- Wind Direction
    No,                       !- Rain Indicator
    No,                       !- Snow Indicator
    No,                       !- Daylight Saving Time Indicator
    ASHRAEClearSky,           !- Solar Model Indicator
    ,                         !- Beam Solar Day Schedule Name
    ,                         !- Diffuse Solar Day Schedule Name
    ,                         !- ASHRAE Clear Sky Optical Depth for Beam Irradiance taub
    ,                         !- ASHRAE Clear Sky Optical Depth for Diffuse Irradiance taud
    1;                        !- Sky Clearness

RunPeriod,
    ,                         !- Name
    1,                        !- Begin Month
    1,                        !- Begin Day of Month
    ,                         !- Begin Year
    12,                       !- End Month
    31,                       !- End Day of Month
    ,                         !- End Year
    Sunday,                   !- Day of Week for Start Day
    Yes,                      !- Use Weather File Holidays and Special Days
    Yes,                      !- Use Weather File Daylight Saving Period
    No,                       !- Apply Weekend Holiday Rule
    Yes,                      !- Use Weather File Rain Indicators
    Yes;                      !- Use Weather File Snow Indicators

ScheduleTypeLimits,
    Any Number,               !- Name
    ,                         !- Lower Limit Value
    ,                         !- Upper Limit Value
    ,                         !- Numeric Type
    Dimensionless;            !- Unit Type

MATERIAL,
    DefaultMaterial,          !- Name
    Rough,                    !- Roughness
    0.1,                      !- Thickness
    0.1,                      !- Conductivity
    1000,                     !- Density
    1000,                     !- Specific Heat
    0.9,                      !- Thermal Absorptance
    0.7,                      !- Solar Absorptance
    0.7;                      !- Visible Absorptance

MATERIAL,
    g01_13mm_gypsum_board,    !- Name
    Smooth,                   !- Roughness
    0.0127,                   !- Thickness
    0.16,                     !- Conductivity
    800,                      !- Density
    1090,                     !- Specific Heat
    0.9,                      !- Thermal Absorptance
    0.7,                      !- Solar Absorptance
    0.5;                      !- Visible Absorptance

MATERIAL,
    g01_16mm_gypsum_board,    !- Name
    MediumSmooth,             !- Roughness
    0.0159,                   !- Thickness
    0.16,                     !- Conductivity
    800,                      !- Density
    1090,                     !- Specific Heat
    0.9,                      !- Thermal Absorptance
    0.7,                      !- Solar Absorptance
    0.7;                      !- Visible Absorptance

MATERIAL,
    100mm_normalweight_concrete_floor,    !- Name
    MediumRough,              !- Roughness
    0.1016,                   !- Thickness
    2.31,                     !- Conductivity
    2322,                     !- Density
    832,                      !- Specific Heat
    0.9,                      !- Thermal Absorptance
    0.7,                      !- Solar Absorptance
    0.7;                      !- Visible Absorptance

MATERIAL,
    f08_metal_surface,        !- Name
    Smooth,                   !- Roughness
    0.0008,                   !- Thickness
    45.28,                    !- Conductivity
    7824,                     !- Density
    500,                      !- Specific Heat
    0.9,                      !- Thermal Absorptance
    0.7,                      !- Solar Absorptance
    0.7;                      !- Visible Absorptance

MATERIAL:NOMASS,
    cp02_carpet_pad,          !- Name
    VeryRough,                !- Roughness
    0.21648,                  !- Thermal Resistance
    0.9,                      !- Thermal Absorptance
    0.7,                      !- Solar Absorptance
    0.8;                      !- Visible Absorptance

MATERIAL:NOMASS,
    wall_ins_layer,           !- Name
    VeryRough,                !- Roughness
    2,                        !- Thermal Resistance
    0.9,                      !- Thermal Absorptance
    0.7,                      !- Solar Absorptance
    0.8;                      !- Visible Absorptance

MATERIAL:NOMASS,
    roof_ins_layer,           !- Name
    VeryRough,                !- Roughness
    2,                        !- Thermal Resistance
    0.9,                      !- Thermal Absorptance
    0.7,                      !- Solar Absorptance
    0.8;                      !- Visible Absorptance

WINDOWMATERIAL:SIMPLEGLAZINGSYSTEM,
    DefaultGlazing,           !- Name
    2.7,                      !- UFactor
    0.763,                    !- Solar Heat Gain Coefficient
    0.8;                      !- Visible Transmittance

CONSTRUCTION,
    Project Wall,             !- Name
    DefaultMaterial;          !- Outside Layer

CONSTRUCTION,
    Project Partition,        !- Name
    DefaultMaterial;          !- Outside Layer

CONSTRUCTION,
    Project Floor,            !- Name
    DefaultMaterial;          !- Outside Layer

CONSTRUCTION,
    Project Flat Roof,        !- Name
    DefaultMaterial;          !- Outside Layer

CONSTRUCTION,
    Project Ceiling,          !- Name
    DefaultMaterial;          !- Outside Layer

CONSTRUCTION,
    Project Door,             !- Name
    DefaultMaterial;          !- Outside Layer

CONSTRUCTION,
    Project External Window,    !- Name
    DefaultGlazing;           !- Outside Layer

CONSTRUCTION,
    int_wall_default,         !- Name
    g01_16mm_gypsum_board;    !- Outside Layer

CONSTRUCTION,
    int_floor_default,        !- Name
    cp02_carpet_pad;          !- Outside Layer

CONSTRUCTION,
    int_ceiling_default,      !- Name
    100mm_normalweight_concrete_floor;    !- Outside Layer

CONSTRUCTION,
    ext_wall_mass,            !- Name
    g01_13mm_gypsum_board;    !- Outside Layer

CONSTRUCTION,
    roof_iead,                !- Name
    f08_metal_surface;        !- Outside Layer

GlobalGeometryRules,
    UpperLeftCorner,          !- Starting Vertex Position
    CounterClockWise,         !- Vertex Entry Direction
    World;                    !- Coordinate System

ZONE,
    Block Office_south_zone Storey 0,    !- Name
    0,                        !- Direction of Relative North
    0,                        !- X Origin
    0,                        !- Y Origin
    0,                        !- Z Origin
    1,                        !- Type
    1,                        !- Multiplier
    autocalculate,            !- Ceiling Height
    autocalculate,            !- Volume
    autocalculate,            !- Floor Area
    ,                         !- Zone Inside Convection Algorithm
    ,                         !- Zone Outside Convection Algorithm
    Yes;                      !- Part of Total Floor Area

ZONE,
    Block Office_south_zone Storey 1,    !- Name
    0,                        !- Direction of Relative North
    0,                        !- X Origin
    0,                        !- Y Origin
    0,                        !- Z Origin
    1,                        !- Type
    1,                        !- Multiplier
    autocalculate,            !- Ceiling Height
    autocalculate,            !- Volume
    autocalculate,            !- Floor Area
    ,                         !- Zone Inside Convection Algorithm
    ,                         !- Zone Outside Convection Algorithm
    Yes;                      !- Part of Total Floor Area

ZONE,
    Block Office_west_zone Storey 0,    !- Name
    0,                        !- Direction of Relative North
    0,                        !- X Origin
    0,                        !- Y Origin
    0,                        !- Z Origin
    1,                        !- Type
    1,                        !- Multiplier
    autocalculate,            !- Ceiling Height
    autocalculate,            !- Volume
    autocalculate,            !- Floor Area
    ,                         !- Zone Inside Convection Algorithm
    ,                         !- Zone Outside Convection Algorithm
    Yes;                      !- Part of Total Floor Area

ZONE,
    Block Office_west_zone Storey 1,    !- Name
    0,                        !- Direction of Relative North
    0,                        !- X Origin
    0,                        !- Y Origin
    0,                        !- Z Origin
    1,                        !- Type
    1,                        !- Multiplier
    autocalculate,            !- Ceiling Height
    autocalculate,            !- Volume
    autocalculate,            !- Floor Area
    ,                         !- Zone Inside Convection Algorithm
    ,                         !- Zone Outside Convection Algorithm
    Yes;                      !- Part of Total Floor Area

ZONE,
    Block Office_north_zone Storey 0,    !- Name
    0,                        !- Direction of Relative North
    0,                        !- X Origin
    0,                        !- Y Origin
    0,                        !- Z Origin
    1,                        !- Type
    1,                        !- Multiplier
    autocalculate,            !- Ceiling Height
    autocalculate,            !- Volume
    autocalculate,            !- Floor Area
    ,                         !- Zone Inside Convection Algorithm
    ,                         !- Zone Outside Convection Algorithm
    Yes;                      !- Part of Total Floor Area

ZONE,
    Block Office_north_zone Storey 1,    !- Name
    0,                        !- Direction of Relative North
    0,                        !- X Origin
    0,                        !- Y Origin
    0,                        !- Z Origin
    1,                        !- Type
    1,                        !- Multiplier
    autocalculate,            !- Ceiling Height
    autocalculate,            !- Volume
    autocalculate,            !- Floor Area
    ,                         !- Zone Inside Convection Algorithm
    ,                         !- Zone Outside Convection Algorithm
    Yes;                      !- Part of Total Floor Area

ZONE,
    Block Office_east_zone Storey 0,    !- Name
    0,                        !- Direction of Relative North
    0,                        !- X Origin
    0,                        !- Y Origin
    0,                        !- Z Origin
    1,                        !- Type
    1,                        !- Multiplier
    autocalculate,            !- Ceiling Height
    autocalculate,            !- Volume
    autocalculate,            !- Floor Area
    ,                         !- Zone Inside Convection Algorithm
    ,                         !- Zone Outside Convection Algorithm
    Yes;                      !- Part of Total Floor Area

ZONE,
    Block Office_east_zone Storey 1,    !- Name
    0,                        !- Direction of Relative North
    0,                        !- X Origin
    0,                        !- Y Origin
    0,                        !- Z Origin
    1,                        !- Type
    1,                        !- Multiplier
    autocalculate,            !- Ceiling Height
    autocalculate,            !- Volume
    autocalculate,            !- Floor Area
    ,                         !- Zone Inside Convection Algorithm
    ,                         !- Zone Outside Convection Algorithm
    Yes;                      !- Part of Total Floor Area

ZONE,
    Block Office_core_zone Storey 0,    !- Name
    0,                        !- Direction of Relative North
    0,                        !- X Origin
    0,                        !- Y Origin
    0,                        !- Z Origin
    1,                        !- Type
    1,                        !- Multiplier
    autocalculate,            !- Ceiling Height
    autocalculate,            !- Volume
    autocalculate,            !- Floor Area
    ,                         !- Zone Inside Convection Algorithm
    ,                         !- Zone Outside Convection Algorithm
    Yes;                      !- Part of Total Floor Area

ZONE,
    Block Office_core_zone Storey 1,    !- Name
    0,                        !- Direction of Relative North
    0,                        !- X Origin
    0,                        !- Y Origin
    0,                        !- Z Origin
    1,                        !- Type
    1,                        !- Multiplier
    autocalculate,            !- Ceiling Height
    autocalculate,            !- Volume
    autocalculate,            !- Floor Area
    ,                         !- Zone Inside Convection Algorithm
    ,                         !- Zone Outside Convection Algorithm
    Yes;                      !- Part of Total Floor Area

ZONELIST,
    zone_list_Office,         !- Name
    Block Office_south_zone Storey 0,    !- Zone 1 Name
    Block Office_south_zone Storey 1,    !- Zone 2 Name
    Block Office_west_zone Storey 0,    !- Zone 3 Name
    Block Office_west_zone Storey 1,    !- Zone 4 Name
    Block Office_north_zone Storey 0,    !- Zone 5 Name
    Block Office_north_zone Storey 1,    !- Zone 6 Name
    Block Office_east_zone Storey 0,    !- Zone 7 Name
    Block Office_east_zone Storey 1,    !- Zone 8 Name
    Block Office_core_zone Storey 0,    !- Zone 9 Name
    Block Office_core_zone Storey 1;    !- Zone 10 Name

BUILDINGSURFACE:DETAILED,
    Block Office_south_zone Storey 0 Wall 0001,    !- Name
    wall,                     !- Surface Type
    int_wall_default,         !- Construction Name
    Block Office_south_zone Storey 0,    !- Zone Name
    outdoors,                 !- Outside Boundary Condition
    ,                         !- Outside Boundary Condition Object
    SunExposed,               !- Sun Exposure
    WindExposed,              !- Wind Exposure
    autocalculate,            !- View Factor to Ground
    autocalculate,            !- Number of Vertices
    45.064134864016424,       !- Vertex 1 Xcoordinate
    0,                        !- Vertex 1 Ycoordinate
    4.2672,                   !- Vertex 1 Zcoordinate
    45.064134864016424,       !- Vertex 2 Xcoordinate
    0,                        !- Vertex 2 Ycoordinate
    0,                        !- Vertex 2 Zcoordinate
    45.064134864016424,       !- Vertex 3 Xcoordinate
    5.3340000000000005,       !- Vertex 3 Ycoordinate
    0,                        !- Vertex 3 Zcoordinate
    45.064134864016424,       !- Vertex 4 Xcoordinate
    5.3340000000000005,       !- Vertex 4 Ycoordinate
    4.2672;                   !- Vertex 4 Zcoordinate

BUILDINGSURFACE:DETAILED,
    Block Office_south_zone Storey 0 Wall 0002,    !- Name
    wall,                     !- Surface Type
    int_wall_default,         !- Construction Name
    Block Office_south_zone Storey 0,    !- Zone Name
    outdoors,                 !- Outside Boundary Condition
    ,                         !- Outside Boundary Condition Object
    SunExposed,               !- Sun Exposure
    WindExposed,              !- Wind Exposure
    autocalculate,            !- View Factor to Ground
    autocalculate,            !- Number of Vertices
    45.064134864016424,       !- Vertex 1 Xcoordinate
    5.3340000000000005,       !- Vertex 1 Ycoordinate
    4.2672,                   !- Vertex 1 Zcoordinate
    45.064134864016424,       !- Vertex 2 Xcoordinate
    5.3340000000000005,       !- Vertex 2 Ycoordinate
    0,                        !- Vertex 2 Zcoordinate
    7.733911184000789,        !- Vertex 3 Xcoordinate
    5.3340000000000005,       !- Vertex 3 Ycoordinate
    0,                        !- Vertex 3 Zcoordinate
    7.733911184000789,        !- Vertex 4 Xcoordinate
    5.3340000000000005,       !- Vertex 4 Ycoordinate
    4.2672;                   !- Vertex 4 Zcoordinate

BUILDINGSURFACE:DETAILED,
    Block Office_south_zone Storey 0 Wall 0003,    !- Name
    wall,                     !- Surface Type
    int_wall_default,         !- Construction Name
    Block Office_south_zone Storey 0,    !- Zone Name
    outdoors,                 !- Outside Boundary Condition
    ,                         !- Outside Boundary Condition Object
    SunExposed,               !- Sun Exposure
    WindExposed,              !- Wind Exposure
    autocalculate,            !- View Factor to Ground
    autocalculate,            !- Number of Vertices
    7.733911184000789,        !- Vertex 1 Xcoordinate
    5.3340000000000005,       !- Vertex 1 Ycoordinate
    4.2672,                   !- Vertex 1 Zcoordinate
    7.733911184000789,        !- Vertex 2 Xcoordinate
    5.3340000000000005,       !- Vertex 2 Ycoordinate
    0,                        !- Vertex 2 Zcoordinate
    7.733911184000789,        !- Vertex 3 Xcoordinate
    0,                        !- Vertex 3 Ycoordinate
    0,                        !- Vertex 3 Zcoordinate
    7.733911184000789,        !- Vertex 4 Xcoordinate
    0,                        !- Vertex 4 Ycoordinate
    4.2672;                   !- Vertex 4 Zcoordinate

BUILDINGSURFACE:DETAILED,
    Block Office_south_zone Storey 0 Wall 0004,    !- Name
    wall,                     !- Surface Type
    ext_wall_mass,            !- Construction Name
    Block Office_south_zone Storey 0,    !- Zone Name
    outdoors,                 !- Outside Boundary Condition
    ,                         !- Outside Boundary Condition Object
    SunExposed,               !- Sun Exposure
    WindExposed,              !- Wind Exposure
    autocalculate,            !- View Factor to Ground
    autocalculate,            !- Number of Vertices
    7.733911184000789,        !- Vertex 1 Xcoordinate
    0,                        !- Vertex 1 Ycoordinate
    4.2672,                   !- Vertex 1 Zcoordinate
    7.733911184000789,        !- Vertex 2 Xcoordinate
    0,                        !- Vertex 2 Ycoordinate
    0,                        !- Vertex 2 Zcoordinate
    45.064134864016424,       !- Vertex 3 Xcoordinate
    0,                        !- Vertex 3 Ycoordinate
    0,                        !- Vertex 3 Zcoordinate
    45.064134864016424,       !- Vertex 4 Xcoordinate
    0,                        !- Vertex 4 Ycoordinate
    4.2672;                   !- Vertex 4 Zcoordinate

BUILDINGSURFACE:DETAILED,
    Block Office_south_zone Storey 0 Floor 0001,    !- Name
    floor,                    !- Surface Type
    int_floor_default,        !- Construction Name
    Block Office_south_zone Storey 0,    !- Zone Name
    ground,                   !- Outside Boundary Condition
    ,                         !- Outside Boundary Condition Object
    NoSun,                    !- Sun Exposure
    NoWind,                   !- Wind Exposure
    autocalculate,            !- View Factor to Ground
    autocalculate,            !- Number of Vertices
    45.064134864016424,       !- Vertex 1 Xcoordinate
    5.3340000000000005,       !- Vertex 1 Ycoordinate
    0,                        !- Vertex 1 Zcoordinate
    45.064134864016424,       !- Vertex 2 Xcoordinate
    0,                        !- Vertex 2 Ycoordinate
    0,                        !- Vertex 2 Zcoordinate
    7.733911184000789,        !- Vertex 3 Xcoordinate
    0,                        !- Vertex 3 Ycoordinate
    0,                        !- Vertex 3 Zcoordinate
    7.733911184000789,        !- Vertex 4 Xcoordinate
    5.3340000000000005,       !- Vertex 4 Ycoordinate
    0;                        !- Vertex 4 Zcoordinate

BUILDINGSURFACE:DETAILED,
    Block Office_south_zone Storey 1 Wall 0001,    !- Name
    wall,                     !- Surface Type
    int_wall_default,         !- Construction Name
    Block Office_south_zone Storey 1,    !- Zone Name
    outdoors,                 !- Outside Boundary Condition
    ,                         !- Outside Boundary Condition Object
    SunExposed,               !- Sun Exposure
    WindExposed,              !- Wind Exposure
    autocalculate,            !- View Factor to Ground
    autocalculate,            !- Number of Vertices
    45.064134864016424,       !- Vertex 1 Xcoordinate
    0,                        !- Vertex 1 Ycoordinate
    8.5344,                   !- Vertex 1 Zcoordinate
    45.064134864016424,       !- Vertex 2 Xcoordinate
    0,                        !- Vertex 2 Ycoordinate
    4.2672,                   !- Vertex 2 Zcoordinate
    45.064134864016424,       !- Vertex 3 Xcoordinate
    5.3340000000000005,       !- Vertex 3 Ycoordinate
    4.2672,                   !- Vertex 3 Zcoordinate
    45.064134864016424,       !- Vertex 4 Xcoordinate
    5.3340000000000005,       !- Vertex 4 Ycoordinate
    8.5344;                   !- Vertex 4 Zcoordinate

BUILDINGSURFACE:DETAILED,
    Block Office_south_zone Storey 1 Wall 0002,    !- Name
    wall,                     !- Surface Type
    int_wall_default,         !- Construction Name
    Block Office_south_zone Storey 1,    !- Zone Name
    outdoors,                 !- Outside Boundary Condition
    ,                         !- Outside Boundary Condition Object
    SunExposed,               !- Sun Exposure
    WindExposed,              !- Wind Exposure
    autocalculate,            !- View Factor to Ground
    autocalculate,            !- Number of Vertices
    45.064134864016424,       !- Vertex 1 Xcoordinate
    5.3340000000000005,       !- Vertex 1 Ycoordinate
    8.5344,                   !- Vertex 1 Zcoordinate
    45.064134864016424,       !- Vertex 2 Xcoordinate
    5.3340000000000005,       !- Vertex 2 Ycoordinate
    4.2672,                   !- Vertex 2 Zcoordinate
    7.733911184000789,        !- Vertex 3 Xcoordinate
    5.3340000000000005,       !- Vertex 3 Ycoordinate
    4.2672,                   !- Vertex 3 Zcoordinate
    7.733911184000789,        !- Vertex 4 Xcoordinate
    5.3340000000000005,       !- Vertex 4 Ycoordinate
    8.5344;                   !- Vertex 4 Zcoordinate

BUILDINGSURFACE:DETAILED,
    Block Office_south_zone Storey 1 Wall 0003,    !- Name
    wall,                     !- Surface Type
    int_wall_default,         !- Construction Name
    Block Office_south_zone Storey 1,    !- Zone Name
    outdoors,                 !- Outside Boundary Condition
    ,                         !- Outside Boundary Condition Object
    SunExposed,               !- Sun Exposure
    WindExposed,              !- Wind Exposure
    autocalculate,            !- View Factor to Ground
    autocalculate,            !- Number of Vertices
    7.733911184000789,        !- Vertex 1 Xcoordinate
    5.3340000000000005,       !- Vertex 1 Ycoordinate
    8.5344,                   !- Vertex 1 Zcoordinate
    7.733911184000789,        !- Vertex 2 Xcoordinate
    5.3340000000000005,       !- Vertex 2 Ycoordinate
    4.2672,                   !- Vertex 2 Zcoordinate
    7.733911184000789,        !- Vertex 3 Xcoordinate
    0,                        !- Vertex 3 Ycoordinate
    4.2672,                   !- Vertex 3 Zcoordinate
    7.733911184000789,        !- Vertex 4 Xcoordinate
    0,                        !- Vertex 4 Ycoordinate
    8.5344;                   !- Vertex 4 Zcoordinate

BUILDINGSURFACE:DETAILED,
    Block Office_south_zone Storey 1 Wall 0004,    !- Name
    wall,                     !- Surface Type
    ext_wall_mass,            !- Construction Name
    Block Office_south_zone Storey 1,    !- Zone Name
    outdoors,                 !- Outside Boundary Condition
    ,                         !- Outside Boundary Condition Object
    SunExposed,               !- Sun Exposure
    WindExposed,              !- Wind Exposure
    autocalculate,            !- View Factor to Ground
    autocalculate,            !- Number of Vertices
    7.733911184000789,        !- Vertex 1 Xcoordinate
    0,                        !- Vertex 1 Ycoordinate
    8.5344,                   !- Vertex 1 Zcoordinate
    7.733911184000789,        !- Vertex 2 Xcoordinate
    0,                        !- Vertex 2 Ycoordinate
    4.2672,                   !- Vertex 2 Zcoordinate
    45.064134864016424,       !- Vertex 3 Xcoordinate
    0,                        !- Vertex 3 Ycoordinate
    4.2672,                   !- Vertex 3 Zcoordinate
    45.064134864016424,       !- Vertex 4 Xcoordinate
    0,                        !- Vertex 4 Ycoordinate
    8.5344;                   !- Vertex 4 Zcoordinate

BUILDINGSURFACE:DETAILED,
    Block Office_south_zone Storey 1 Roof 0001,    !- Name
    roof,                     !- Surface Type
    roof_iead,                !- Construction Name
    Block Office_south_zone Storey 1,    !- Zone Name
    outdoors,                 !- Outside Boundary Condition
    ,                         !- Outside Boundary Condition Object
    SunExposed,               !- Sun Exposure
    WindExposed,              !- Wind Exposure
    autocalculate,            !- View Factor to Ground
    autocalculate,            !- Number of Vertices
    45.064134864016424,       !- Vertex 1 Xcoordinate
    0,                        !- Vertex 1 Ycoordinate
    8.5344,                   !- Vertex 1 Zcoordinate
    45.064134864016424,       !- Vertex 2 Xcoordinate
    5.3340000000000005,       !- Vertex 2 Ycoordinate
    8.5344,                   !- Vertex 2 Zcoordinate
    7.733911184000789,        !- Vertex 3 Xcoordinate
    5.3340000000000005,       !- Vertex 3 Ycoordinate
    8.5344,                   !- Vertex 3 Zcoordinate
    7.733911184000789,        !- Vertex 4 Xcoordinate
    0,                        !- Vertex 4 Ycoordinate
    8.5344;                   !- Vertex 4 Zcoordinate

BUILDINGSURFACE:DETAILED,
    Block Office_south_zone Storey 0 Ceiling 0001_1,    !- Name
    ceiling,                  !- Surface Type
    int_ceiling_default,      !- Construction Name
    Block Office_south_zone Storey 0,    !- Zone Name
    outdoors,                 !- Outside Boundary Condition
    ,                         !- Outside Boundary Condition Object
    SunExposed,               !- Sun Exposure
    WindExposed,              !- Wind Exposure
    autocalculate,            !- View Factor to Ground
    autocalculate,            !- Number of Vertices
    45.064134863670915,       !- Vertex 1 Xcoordinate
    0,                        !- Vertex 1 Ycoordinate
    4.2672,                   !- Vertex 1 Zcoordinate
    45.064134863670915,       !- Vertex 2 Xcoordinate
    5.333999999798834,        !- Vertex 2 Ycoordinate
    4.2672,                   !- Vertex 2 Zcoordinate
    7.733911183662713,        !- Vertex 3 Xcoordinate