!- Unix Line endings 

Version,
    9.0;                      !- Version Identifier

SimulationControl,
    Yes,                      !- Do Zone Sizing Calculation
    Yes,                      !- Do System Sizing Calculation
    Yes,                      !- Do Plant Sizing Calculation
    Yes,                      !- Run Simulation for Sizing Periods
    Yes;                      !- Run Simulation for Weather File Run Periods

Building,
    test_building,            !- Name
    0,                        !- North Axis
    Suburbs,                  !- Terrain
    0.04,                     !- Loads Convergence Tolerance Value
    0.4,                      !- Temperature Convergence Tolerance Value
    FullInteriorAndExterior,    !- Solar Distribution
    25,                       !- Maximum Number of Warmup Days
    6;                        !- Minimum Number of Warmup Days

Timestep,
    6;                        !- Number of Timesteps per Hour

SizingPeriod:DesignDay,
    DENVER_STAPLETON Ann Htg 99.6% Condns DB,    !- Name
    12,                       !- Month
    21,                       !- Day of Month
    WinterDesignDay,          !- Day Type
    -20,                      !- Maximum DryBulb Temperature
    0,                        !- Daily DryBulb Temperature Range
    ,                         !- DryBulb Temperature Range Modifier Type
    ,                         !- DryBulb Temperature Range Modifier Day Schedule Name
    Wetbulb,                  !- Humidity Condition Type
    -20,                      !- Wetbulb or DewPoint at Maximum DryBulb
    ,                         !- Humidity Condition Day Schedule Name
    ,                         !- Humidity Ratio at Maximum DryBulb
    ,                         !- Enthalpy at Maximum DryBulb
    ,                         !- Daily WetBulb Temperature Range
    83411,                    !- Barometric Pressure
    2.3,                      !- Wind Speed
    180,                      !- Wind Direction
    No,                       !- Rain Indicator
    No,                       !- Snow Indicator
    No,                       !- Daylight Saving Time Indicator
    ASHRAEClearSky,           !- Solar Model Indicator
    ,                         !- Beam Solar Day Schedule Name
    ,                         !- Diffuse Solar Day Schedule Name
    ,                         !- ASHRAE Clear Sky Optical Depth for Beam Irradiance taub
    ,                         !- ASHRAE Clear Sky Optical Depth for Diffuse Irradiance taud
    0;                        !- Sky Clearness

SizingPeriod:DesignDay,
    DENVER_STAPLETON Ann Clg .4% Condns DB=>MWB,    !- Name
    7,                        !- Month
    21,                       !- Day of Month
    SummerDesignDay,          !- Day Type
    34.1,                     !- Maximum DryBulb Temperature
    15.2,                     !- Daily DryBulb Temperature Range
    ,                         !- DryBulb Temperature Range Modifier Type
    ,                         !- DryBulb Temperature Range Modifier Day Schedule Name
    Wetbulb,                  !- Humidity Condition Type
    15.8,                     !- Wetbulb or DewPoint at Maximum DryBulb
    ,                         !- Humidity Condition Day Schedule Name
    ,                         !- Humidity Ratio at Maximum DryBulb
    ,                         !- Enthalpy at Maximum DryBulb
    ,                         !- Daily WetBulb Temperature Range
    83411,                    !- Barometric Pressure
    4,                        !- Wind Speed
    120,                      !- Wind Direction
    No,                       !- Rain Indicator
    No,                       !- Snow Indicator
    No,                       !- Daylight Saving Time Indicator
    ASHRAEClearSky,           !- Solar Model Indicator
    ,                         !- Beam Solar Day Schedule Name
    ,                         !- Diffuse Solar Day Schedule Name
    ,                         !- ASHRAE Clear Sky Optical Depth for Beam Irradiance taub
    ,                         !- ASHRAE Clear Sky Optical Depth for Diffuse Irradiance taud
    1;                        !- Sky Clearness

RunPeriod,
    ,                         !- Name
    1,                        !- Begin Month
    1,                        !- Begin Day of Month
    ,                         !- Begin Year
    12,                       !- End Month
    31,                       !- End Day of Month
    ,                         !- End Year
    Sunday,                   !- Day of Week for Start Day
    Yes,                      !- Use Weather File Holidays and Special Days
    Yes,                      !- Use Weather File Daylight Saving Period
    No,                       !- Apply Weekend Holiday Rule
    Yes,                      !- Use Weather File Rain Indicators
    Yes;                      !- Use Weather File Snow Indicators

ScheduleTypeLimits,
    Any Number,               !- Name
    ,                         !- Lower Limit Value
    ,                         !- Upper Limit Value
    ,                         !- Numeric Type
    Dimensionless;            !- Unit Type

GlobalGeometryRules,
    UpperLeftCorner,          !- Starting Vertex Position
    CounterClockWise,         !- Vertex Entry Direction
    World;                    !- Coordinate System

ZONE,
    Block Dining: Cafeteria/fast food_south_zone Storey 0,    !- Name
    0,                        !- Direction of Relative North
    0,                        !- X Origin
    0,                        !- Y Origin
    0,                        !- Z Origin
    1,                        !- Type
    1,                        !- Multiplier
    autocalculate,            !- Ceiling Height
    autocalculate,            !- Volume
    autocalculate,            !- Floor Area
    ,                         !- Zone Inside Convection Algorithm
    ,                         !- Zone Outside Convection Algorithm
    Yes;                      !- Part of Total Floor Area

ZONE,
    Block Dining: Cafeteria/fast food_west_zone Storey 0,    !- Name
    0,                        !- Direction of Relative North
    0,                        !- X Origin
    0,                        !- Y Origin
    0,                        !- Z Origin
    1,                        !- Type
    1,                        !- Multiplier
    autocalculate,            !- Ceiling Height
    autocalculate,            !- Volume
    autocalculate,            !- Floor Area
    ,                         !- Zone Inside Convection Algorithm
    ,                         !- Zone Outside Convection Algorithm
    Yes;                      !- Part of Total Floor Area

ZONE,
    Block Dining: Cafeteria/fast food_north_zone Storey 0,    !- Name
    0,                        !- Direction of Relative North
    0,                        !- X Origin
    0,                        !- Y Origin
    0,                        !- Z Origin
    1,                        !- Type
    1,                        !- Multiplier
    autocalculate,            !- Ceiling Height
    autocalculate,            !- Volume
    autocalculate,            !- Floor Area
    ,                         !- Zone Inside Convection Algorithm
    ,                         !- Zone Outside Convection Algorithm
    Yes;                      !- Part of Total Floor Area

ZONE,
    Block Dining: Cafeteria/fast food_east_zone Storey 0,    !- Name
    0,                        !- Direction of Relative North
    0,                        !- X Origin
    0,                        !- Y Origin
    0,                        !- Z Origin
    1,                        !- Type
    1,                        !- Multiplier
    autocalculate,            !- Ceiling Height
    autocalculate,            !- Volume
    autocalculate,            !- Floor Area
    ,                         !- Zone Inside Convection Algorithm
    ,                         !- Zone Outside Convection Algorithm
    Yes;                      !- Part of Total Floor Area

ZONELIST,
    zone_list_Dining: Cafeteria/fast food,    !- Name
    Block Dining: Cafeteria/fast food_south_zone Storey 0,    !- Zone 1 Name
    Block Dining: Cafeteria/fast food_west_zone Storey 0,    !- Zone 2 Name
    Block Dining: Cafeteria/fast food_north_zone Storey 0,    !- Zone 3 Name
    Block Dining: Cafeteria/fast food_east_zone Storey 0;    !- Zone 4 Name

BUILDINGSURFACE:DETAILED,
    Block Dining: Cafeteria/fast food_south_zone Storey 0 Wall 0001,    !- Name
    wall,                     !- Surface Type
    ,                         !- Construction Name
    Block Dining: Cafeteria/fast food_south_zone Storey 0,    !- Zone Name
    outdoors,                 !- Outside Boundary Condition
    ,                         !- Outside Boundary Condition Object
    SunExposed,               !- Sun Exposure
    WindExposed,              !- Wind Exposure
    autocalculate,            !- View Factor to Ground
    autocalculate,            !- Number of Vertices
    23.965831207760488,       !- Vertex 1 Xcoordinate
    0,                        !- Vertex 1 Ycoordinate
    3.6576000000000004,       !- Vertex 1 Zcoordinate
    23.965831207760488,       !- Vertex 2 Xcoordinate
    0,                        !- Vertex 2 Ycoordinate
    0,                        !- Vertex 2 Zcoordinate
    23.965831207760488,       !- Vertex 3 Xcoordinate
    3.7691606705712895,       !- Vertex 3 Ycoordinate
    0,                        !- Vertex 3 Zcoordinate
    23.965831207760488,       !- Vertex 4 Xcoordinate
    3.7691606705712895,       !- Vertex 4 Ycoordinate
    3.6576000000000004;       !- Vertex 4 Zcoordinate

BUILDINGSURFACE:DETAILED,
    Block Dining: Cafeteria/fast food_south_zone Storey 0 Wall 0002,    !- Name
    wall,                     !- Surface Type
    ,                         !- Construction Name
    Block Dining: Cafeteria/fast food_south_zone Storey 0,    !- Zone Name
    outdoors,                 !- Outside Boundary Condition
    ,                         !- Outside Boundary Condition Object
    SunExposed,               !- Sun Exposure
    WindExposed,              !- Wind Exposure
    autocalculate,            !- View Factor to Ground
    autocalculate,            !- Number of Vertices
    23.965831207760488,       !- Vertex 1 Xcoordinate
    3.7691606705712895,       !- Vertex 1 Ycoordinate
    3.6576000000000004,       !- Vertex 1 Zcoordinate
    23.965831207760488,       !- Vertex 2 Xcoordinate
    3.7691606705712895,       !- Vertex 2 Ycoordinate
    0,                        !- Vertex 2 Zcoordinate
    5.08987456953947,         !- Vertex 3 Xcoordinate
    3.7691606705712895,       !- Vertex 3 Ycoordinate
    0,                        !- Vertex 3 Zcoordinate
    5.08987456953947,         !- Vertex 4 Xcoordinate
    3.7691606705712895,       !- Vertex 4 Ycoordinate
    3.6576000000000004;       !- Vertex 4 Zcoordinate

BUILDINGSURFACE:DETAILED,
    Block Dining: Cafeteria/fast food_south_zone Storey 0 Wall 0003,    !- Name
    wall,                     !- Surface Type
    ,                         !- Construction Name
    Block Dining: Cafeteria/fast food_south_zone Storey 0,    !- Zone Name
    outdoors,                 !- Outside Boundary Condition
    ,                         !- Outside Boundary Condition Object
    SunExposed,               !- Sun Exposure
    WindExposed,              !- Wind Exposure
    autocalculate,            !- View Factor to Ground
    autocalculate,            !- Number of Vertices
    5.08987456953947,         !- Vertex 1 Xcoordinate
    3.7691606705712895,       !- Vertex 1 Ycoordinate
    3.6576000000000004,       !- Vertex 1 Zcoordinate
    5.08987456953947,         !- Vertex 2 Xcoordinate
    3.7691606705712895,       !- Vertex 2 Ycoordinate
    0,                        !- Vertex 2 Zcoordinate
    5.08987456953947,         !- Vertex 3 Xcoordinate
    0,                        !- Vertex 3 Ycoordinate
    0,                        !- Vertex 3 Zcoordinate
    5.08987456953947,         !- Vertex 4 Xcoordinate
    0,                        !- Vertex 4 Ycoordinate
    3.6576000000000004;       !- Vertex 4 Zcoordinate

BUILDINGSURFACE:DETAILED,
    Block Dining: Cafeteria/fast food_south_zone Storey 0 Wall 0004,    !- Name
    wall,                     !- Surface Type
    ,                         !- Construction Name
    Block Dining: Cafeteria/fast food_south_zone Storey 0,    !- Zone Name
    outdoors,                 !- Outside Boundary Condition
    ,                         !- Outside Boundary Condition Object
    SunExposed,               !- Sun Exposure
    WindExposed,              !- Wind Exposure
    autocalculate,            !- View Factor to Ground
    autocalculate,            !- Number of Vertices
    5.08987456953947,         !- Vertex 1 Xcoordinate
    0,                        !- Vertex 1 Ycoordinate
    3.6576000000000004,       !- Vertex 1 Zcoordinate
    5.08987456953947,         !- Vertex 2 Xcoordinate
    0,                        !- Vertex 2 Ycoordinate
    0,                        !- Vertex 2 Zcoordinate
    23.965831207760488,       !- Vertex 3 Xcoordinate
    0,                        !- Vertex 3 Ycoordinate
    0,                        !- Vertex 3 Zcoordinate
    23.965831207760488,       !- Vertex 4 Xcoordinate
    0,                        !- Vertex 4 Ycoordinate
    3.6576000000000004;       !- Vertex 4 Zcoordinate

BUILDINGSURFACE:DETAILED,
    Block Dining: Cafeteria/fast food_south_zone Storey 0 Floor 0001,    !- Name
    floor,                    !- Surface Type
    ,                         !- Construction Name
    Block Dining: Cafeteria/fast food_south_zone Storey 0,    !- Zone Name
    ground,                   !- Outside Boundary Condition
    ,                         !- Outside Boundary Condition Object
    NoSun,                    !- Sun Exposure
    NoWind,                   !- Wind Exposure
    autocalculate,            !- View Factor to Ground
    autocalculate,            !- Number of Vertices
    23.965831207760488,       !- Vertex 1 Xcoordinate
    3.7691606705712895,       !- Vertex 1 Ycoordinate
    0,                        !- Vertex 1 Zcoordinate
    23.965831207760488,       !- Vertex 2 Xcoordinate
    0,                        !- Vertex 2 Ycoordinate
    0,                        !- Vertex 2 Zcoordinate
    5.08987456953947,         !- Vertex 3 Xcoordinate
    0,                        !- Vertex 3 Ycoordinate
    0,                        !- Vertex 3 Zcoordinate
    5.08987456953947,         !- Vertex 4 Xcoordinate
    3.7691606705712895,       !- Vertex 4 Ycoordinate
    0;                        !- Vertex 4 Zcoordinate

BUILDINGSURFACE:DETAILED,
    Block Dining: Cafeteria/fast food_south_zone Storey 0 Roof 0001,    !- Name
    roof,                     !- Surface Type
    ,                         !- Construction Name
    Block Dining: Cafeteria/fast food_south_zone Storey 0,    !- Zone Name
    outdoors,                 !- Outside Boundary Condition
    ,                         !- Outside Boundary Condition Object
    SunExposed,               !- Sun Exposure
    WindExposed,              !- Wind Exposure
    autocalculate,            !- View Factor to Ground
    autocalculate,            !- Number of Vertices
    23.965831207760488,       !- Vertex 1 Xcoordinate
    0,                        !- Vertex 1 Ycoordinate
    3.6576000000000004,       !- Vertex 1 Zcoordinate
    23.965831207760488,       !- Vertex 2 Xcoordinate
    3.7691606705712895,       !- Vertex 2 Ycoordinate
    3.6576000000000004,       !- Vertex 2 Zcoordinate
    5.08987456953947,         !- Vertex 3 Xcoordinate
    3.7691606705712895,       !- Vertex 3 Ycoordinate
    3.6576000000000004,       !- Vertex 3 Zcoordinate
    5.08987456953947,         !- Vertex 4 Xcoordinate
    0,                        !- Vertex 4 Ycoordinate
    3.6576000000000004;       !- Vertex 4 Zcoordinate

BUILDINGSURFACE:DETAILED,
    Block Dining: Cafeteria/fast food_west_zone Storey 0 Wall 0001,    !- Name
    wall,                     !- Surface Type
    ,                         !- Construction Name
    Block Dining: Cafeteria/fast food_west_zone Storey 0,    !- Zone Name
    outdoors,                 !- Outside Boundary Condition
    ,                         !- Outside Boundary Condition Object
    SunExposed,               !- Sun Exposure
    WindExposed,              !- Wind Exposure
    autocalculate,            !- View Factor to Ground
    autocalculate,            !- Number of Vertices
    3.769160670571289,        !- Vertex 1 Xcoordinate
    4.773601891824597,        !- Vertex 1 Ycoordinate
    3.6576000000000004,       !- Vertex 1 Zcoordinate
    3.769160670571289,        !- Vertex 2 Xcoordinate
    4.773601891824597,        !- Vertex 2 Ycoordinate
    0,                        !- Vertex 2 Zcoordinate
    3.769160670571289,        !- Vertex 3 Xcoordinate
    17.324104975748142,       !- Vertex 3 Ycoordinate
    0,                        !- Vertex 3 Zcoordinate
    3.769160670571289,        !- Vertex 4 Xcoordinate
    17.324104975748142,       !- Vertex 4 Ycoordinate
    3.6576000000000004;       !- Vertex 4 Zcoordinate

BUILDINGSURFACE:DETAILED,
    Block Dining: Cafeteria/fast food_west_zone Storey 0 Wall 0002,    !- Name
    wall,                     !- Surface Type
    ,                         !- Construction Name
    Block Dining: Cafeteria/fast food_west_zone Storey 0,    !- Zone Name
    outdoors,                 !- Outside Boundary Condition
    ,                         !- Outside Boundary Condition Object
    SunExposed,               !- Sun Exposure
    WindExposed,              !- Wind Exposure
    autocalculate,            !- View Factor to Ground
    autocalculate,            !- Number of Vertices
    3.769160670571289,        !- Vertex 1 Xcoordinate
    17.324104975748142,       !- Vertex 1 Ycoordinate
    3.6576000000000004,       !- Vertex 1 Zcoordinate
    3.769160670571289,        !- Vertex 2 Xcoordinate
    17.324104975748142,       !- Vertex 2 Ycoordinate
    0,                        !- Vertex 2 Zcoordinate
    0,                        !- Vertex 3 Xcoordinate
    17.324104975748142,       !- Vertex 3 Ycoordinate
    0,                        !- Vertex 3 Zcoordinate
    0,                        !- Vertex 4 Xcoordinate
    17.324104975748142,       !- Vertex 4 Ycoordinate
    3.6576000000000004;       !- Vertex 4 Zcoordinate

BUILDINGSURFACE:DETAILED,
    Block Dining: Cafeteria/fast food_west_zone Storey 0 Wall 0003,    !- Name
    wall,                     !- Surface Type
    ,                         !- Construction Name
    Block Dining: Cafeteria/fast food_west_zone Storey 0,    !- Zone Name
    outdoors,                 !- Outside Boundary Condition
    ,                         !- Outside Boundary Condition Object
    SunExposed,               !- Sun Exposure
    WindExposed,              !- Wind Exposure
    autocalculate,            !- View Factor to Ground
    autocalculate,            !- Number of Vertices
    0,                        !- Vertex 1 Xcoordinate
    17.324104975748142,       !- Vertex 1 Ycoordinate
    3.6576000000000004,       !- Vertex 1 Zcoordinate
    0,                        !- Vertex 2 Xcoordinate
    17.324104975748142,       !- Vertex 2 Ycoordinate
    0,                        !- Vertex 2 Zcoordinate
    0,                        !- Vertex 3 Xcoordinate
    4.773601891824597,        !- Vertex 3 Ycoordinate
    0,                        !- Vertex 3 Zcoordinate
    0,                        !- Vertex 4 Xcoordinate
    4.773601891824597,        !- Vertex 4 Ycoordinate
    3.6576000000000004;       !- Vertex 4 Zcoordinate

BUILDINGSURFACE:DETAILED,
    Block Dining: Cafeteria/fast food_west_zone Storey 0 Wall 0004,    !- Name
    wall,                     !- Surface Type
    ,                         !- Construction Name
    Block Dining: Cafeteria/fast food_west_zone Storey 0,    !- Zone Name
    outdoors,                 !- Outside Boundary Condition
    ,                         !- Outside Boundary Condition Object
    SunExposed,               !- Sun Exposure
    WindExposed,              !- Wind Exposure
    autocalculate,            !- View Factor to Ground
    autocalculate,            !- Number of Vertices
    0,                        !- Vertex 1 Xcoordinate
    4.773601891824597,        !- Vertex 1 Ycoordinate
    3.6576000000000004,       !- Vertex 1 Zcoordinate
    0,                        !- Vertex 2 Xcoordinate
    4.773601891824597,        !- Vertex 2 Ycoordinate
    0,                        !- Vertex 2 Zcoordinate
    3.769160670571289,        !- Vertex 3 Xcoordinate
    4.773601891824597,        !- Vertex 3 Ycoordinate
    0,                        !- Vertex 3 Zcoordinate
    3.769160670571289,        !- Vertex 4 Xcoordinate
    4.773601891824597,        !- Vertex 4 Ycoordinate
    3.6576000000000004;       !- Vertex 4 Zcoordinate

BUILDINGSURFACE:DETAILED,
    Block Dining: Cafeteria/fast food_west_zone Storey 0 Floor 0001,    !- Name
    floor,                    !- Surface Type
    ,                         !- Construction Name
    Block Dining: Cafeteria/fast food_west_zone Storey 0,    !- Zone Name
    ground,                   !- Outside Boundary Condition
    ,                         !- Outside Boundary Condition Object
    NoSun,                    !- Sun Exposure
    NoWind,                   !- Wind Exposure
    autocalculate,            !- View Factor to Ground
    autocalculate,            !- Number of Vertices
    3.769160670571289,        !- Vertex 1 Xcoordinate
    17.324104975748142,       !- Vertex 1 Ycoordinate
    0,                        !- Vertex 1 Zcoordinate
    3.769160670571289,        !- Vertex 2 Xcoordinate
    4.773601891824597,        !- Vertex 2 Ycoordinate
    0,                        !- Vertex 2 Zcoordinate
    0,                        !- Vertex 3 Xcoordinate
    4.773601891824597,        !- Vertex 3 Ycoordinate
    0,                        !- Vertex 3 Zcoordinate
    0,                        !- Vertex 4 Xcoordinate
    17.324104975748142,       !- Vertex 4 Ycoordinate
    0;                        !- Vertex 4 Zcoordinate

BUILDINGSURFACE:DETAILED,
    Block Dining: Cafeteria/fast food_west_zone Storey 0 Roof 0001,    !- Name
    roof,                     !- Surface Type
    ,                         !- Construction Name
    Block Dining: Cafeteria/fast food_west_zone Storey 0,    !- Zone Name
    outdoors,                 !- Outside Boundary Condition
    ,                         !- Outside Boundary Condition Object
    SunExposed,               !- Sun Exposure
    WindExposed,              !- Wind Exposure
    autocalculate,            !- View Factor to Ground
    autocalculate,            !- Number of Vertices
    3.769160670571289,        !- Vertex 1 Xcoordinate
    4.773601891824597,        !- Vertex 1 Ycoordinate
    3.6576000000000004,       !- Vertex 1 Zcoordinate
    3.769160670571289,        !- Vertex 2 Xcoordinate
    17.324104975748142,       !- Vertex 2 Ycoordinate
    3.6576000000000004,       !- Vertex 2 Zcoordinate
    0,                        !- Vertex 3 Xcoordinate
    17.324104975748142,       !- Vertex 3 Ycoordinate
    3.6576000000000004,       !- Vertex 3 Zcoordinate
    0,                        !- Vertex 4 Xcoordinate
    4.773601891824597,        !- Vertex 4 Ycoordinate
    3.6576000000000004;       !- Vertex 4 Zcoordinate

BUILDINGSURFACE:DETAILED,
    Block Dining: Cafeteria/fast food_north_zone Storey 0 Wall 0001,    !- Name
    wall,                     !- Surface Type
    ,                         !- Construction Name
    Block Dining: Cafeteria/fast food_north_zone Storey 0,    !- Zone Name
    outdoors,                 !- Outside Boundary Condition
    ,                         !- Outside Boundary Condition Object
    SunExposed,               !- Sun Exposure
    WindExposed,              !- Wind Exposure
    autocalculate,            !- View Factor to Ground
    autocalculate,            !- Number of Vertices
    23.965831207760488,       !- Vertex 1 Xcoordinate
    18.32854619700145,        !- Vertex 1 Ycoordinate
    3.6576000000000004,       !- Vertex 1 Zcoordinate
    23.965831207760488,       !- Vertex 2 Xcoordinate
    18.32854619700145,        !- Vertex 2 Ycoordinate
    0,                        !- Vertex 2 Zcoordinate
    23.965831207760488,       !- Vertex 3 Xcoordinate
    22.09770686757274,        !- Vertex 3 Ycoordinate
    0,                        !- Vertex 3 Zcoordinate
    23.965831207760488,       !- Vertex 4 Xcoordinate
    22.09770686757274,        !- Vertex 4 Ycoordinate
    3.6576000000000004;       !- Vertex 4 Zcoordinate

BUILDINGSURFACE:DETAILED,
    Block Dining: Cafeteria/fast food_north_zone Storey 0 Wall 0002,    !- Name
    wall,                     !- Surface Type
    ,                         !- Construction Name
    Block Dining: Cafeteria/fast food_north_zone Storey 0,    !- Zone Name
    outdoors,                 !- Outside Boundary Condition
    ,                         !- Outside Boundary Condition Object
    SunExposed,               !- Sun Exposure
    WindExposed,              !- Wind Exposure
    autocalculate,            !- View Factor to Ground
    autocalculate,            !- Number of Vertices
    23.965831207760488,       !- Vertex 1 Xcoordinate
    22.09770686757274,        !- Vertex 1 Ycoordinate
    3.6576000000000004,       !- Vertex 1 Zcoordinate
    23.965831207760488,       !- Vertex 2 Xcoordinate
    22.09770686757274,        !- Vertex 2 Ycoordinate
    0,                        !- Vertex 2 Zcoordinate
    5.08987456953947,         !- Vertex 3 Xcoordinate
    22.09770686757274,        !- Vertex 3 Ycoordinate
    0,                        !- Vertex 3 Zcoordinate
    5.08987456953947,         !- Vertex 4 Xcoordinate
    22.09770686757274,        !- Vertex 4 Ycoordinate
    3.6576000000000004;       !- Vertex 4 Zcoordinate

BUILDINGSURFACE:DETAILED,
    Block Dining: Cafeteria/fast food_north_zone Storey 0 Wall 0003,    !- Name
    wall,                     !- Surface Type
    ,                         !- Construction Name
    Block Dining: Cafeteria/fast food_north_zone Storey 0,    !- Zone Name
    outdoors,                 !- Outside Boundary Condition
    ,                         !- Outside Boundary Condition Object
    SunExposed,               !- Sun Exposure
    WindExposed,              !- Wind Exposure
    autocalculate,            !- View Factor to Ground
    autocalculate,            !- Number of Vertices
    5.08987456953947,         !- Vertex 1 Xcoordinate
    22.09770686757274,        !- Vertex 1 Ycoordinate
    3.6576000000000004,       !- Vertex 1 Zcoordinate
    5.08987456953947,         !- Vertex 2 Xcoordinate
    22.09770686757274,        !- Vertex 2 Ycoordinate
    0,                        !- Vertex 2 Zcoordinate
    5.08987456953947,         !- Vertex 3 Xcoordinate
    18.32854619700145,        !- Vertex 3 Ycoordinate
    0,                        !- Vertex 3 Zcoordinate
    5.08987456953947,         !- Vertex 4 Xcoordinate
    18.32854619700145,        !- Vertex 4 Ycoordinate
    3.6576000000000004;       !- Vertex 4 Zcoordinate

BUILDINGSURFACE:DETAILED,
    Block Dining: Cafeteria/fast food_north_zone Storey 0 Wall 0004,    !- Name
    wall,                     !- Surface Type
    ,                         !- Construction Name
    Block Dining: Cafeteria/fast food_north_zone Storey 0,    !- Zone Name
    outdoors,                 !- Outside Boundary Condition
    ,                         !- Outside Boundary Condition Object
    SunExposed,               !- Sun Exposure
    WindExposed,              !- Wind Exposure
    autocalculate,            !- View Factor to Ground
    autocalculate,            !- Number of Vertices
    5.08987456953947,         !- Vertex 1 Xcoordinate
    18.32854619700145,        !- Vertex 1 Ycoordinate
    3.6576000000000004,       !- Vertex 1 Zcoordinate
    5.08987456953947,         !- Vertex 2 Xcoordinate
    18.32854619700145,        !- Vertex 2 Ycoordinate
    0,                        !- Vertex 2 Zcoordinate
    23.965831207760488,       !- Vertex 3 Xcoordinate
    18.32854619700145,        !- Vertex 3 Ycoordinate
    0,                        !- Vertex 3 Zcoordinate
    23.965831207760488,       !- Vertex 4 Xcoordinate
    18.32854619700145,        !- Vertex 4 Ycoordinate
    3.6576000000000004;       !- Vertex 4 Zcoordinate

BUILDINGSURFACE:DETAILED,
    Block Dining: Cafeteria/fast food_north_zone Storey 0 Floor 0001,    !- Name
    floor,                    !- Surface Type
    ,                         !- Construction Name
    Block Dining: Cafeteria/fast food_north_zone Storey 0,    !- Zone Name
    ground,                   !- Outside Boundary Condition
    ,                         !- Outside Boundary Condition Object
    NoSun,                    !- Sun Exposure
    NoWind,                   !- Wind Exposure
    autocalculate,            !- View Factor to Ground
    autocalculate,            !- Number of Vertices
    23.965831207760488,       !- Vertex 1 Xcoordinate
    22.09770686757274,        !- Vertex 1 Ycoordinate
    0,                        !- Vertex 1 Zcoordinate
    23.965831207760488,       !- Vertex 2 Xcoordinate
    18.32854619700145,        !- Vertex 2 Ycoordinate
    0,                        !- Vertex 2 Zcoordinate
    5.08987456953947,         !- Vertex 3 Xcoordinate
    18.32854619700145,        !- Vertex 3 Ycoordinate
    0,                        !- Vertex 3 Zcoordinate
    5.08987456953947,         !- Vertex 4 Xcoordinate
    22.09770686757274,        !- Vertex 4 Ycoordinate
    0;                        !- Vertex 4 Zcoordinate

BUILDINGSURFACE:DETAILED,
    Block Dining: Cafeteria/fast food_north_zone Storey 0 Roof 0001,    !- Name
    roof,                     !- Surface Type
    ,                         !- Construction Name
    Block Dining: Cafeteria/fast food_north_zone Storey 0,    !- Zone Name