!- Unix Line endings 

Version,
    9.0;                      !- Version Identifier

SimulationControl,
    Yes,                      !- Do Zone Sizing Calculation
    Yes,                      !- Do System Sizing Calculation
    Yes,                      !- Do Plant Sizing Calculation
    Yes,                      !- Run Simulation for Sizing Periods
    Yes;                      !- Run Simulation for Weather File Run Periods

Building,
    test_building,            !- Name
    0,                        !- North Axis
    Suburbs,                  !- Terrain
    0.04,                     !- Loads Convergence Tolerance Value
    0.4,                      !- Temperature Convergence Tolerance Value
    FullInteriorAndExterior,    !- Solar Distribution
    25,                       !- Maximum Number of Warmup Days
    6;                        !- Minimum Number of Warmup Days

Timestep,
    6;                        !- Number of Timesteps per Hour

SizingPeriod:DesignDay,
    DENVER_STAPLETON Ann Htg 99.6% Condns DB,    !- Name
    12,                       !- Month
    21,                       !- Day of Month
    WinterDesignDay,          !- Day Type
    -20,                      !- Maximum DryBulb Temperature
    0,                        !- Daily DryBulb Temperature Range
    ,                         !- DryBulb Temperature Range Modifier Type
    ,                         !- DryBulb Temperature Range Modifier Day Schedule Name
    Wetbulb,                  !- Humidity Condition Type
    -20,                      !- Wetbulb or DewPoint at Maximum DryBulb
    ,                         !- Humidity Condition Day Schedule Name
    ,                         !- Humidity Ratio at Maximum DryBulb
    ,                         !- Enthalpy at Maximum DryBulb
    ,                         !- Daily WetBulb Temperature Range
    83411,                    !- Barometric Pressure
    2.3,                      !- Wind Speed
    180,                      !- Wind Direction
    No,                       !- Rain Indicator
    No,                       !- Snow Indicator
    No,                       !- Daylight Saving Time Indicator
    ASHRAEClearSky,           !- Solar Model Indicator
    ,                         !- Beam Solar Day Schedule Name
    ,                         !- Diffuse Solar Day Schedule Name
    ,                         !- ASHRAE Clear Sky Optical Depth for Beam Irradiance taub
    ,                         !- ASHRAE Clear Sky Optical Depth for Diffuse Irradiance taud
    0;                        !- Sky Clearness

SizingPeriod:DesignDay,
    DENVER_STAPLETON Ann Clg .4% Condns DB=>MWB,    !- Name
    7,                        !- Month
    21,                       !- Day of Month
    SummerDesignDay,          !- Day Type
    34.1,                     !- Maximum DryBulb Temperature
    15.2,                     !- Daily DryBulb Temperature Range
    ,                         !- DryBulb Temperature Range Modifier Type
    ,                         !- DryBulb Temperature Range Modifier Day Schedule Name
    Wetbulb,                  !- Humidity Condition Type
    15.8,                     !- Wetbulb or DewPoint at Maximum DryBulb
    ,                         !- Humidity Condition Day Schedule Name
    ,                         !- Humidity Ratio at Maximum DryBulb
    ,                         !- Enthalpy at Maximum DryBulb
    ,                         !- Daily WetBulb Temperature Range
    83411,                    !- Barometric Pressure
    4,                        !- Wind Speed
    120,                      !- Wind Direction
    No,                       !- Rain Indicator
    No,                       !- Snow Indicator
    No,                       !- Daylight Saving Time Indicator
    ASHRAEClearSky,           !- Solar Model Indicator
    ,                         !- Beam Solar Day Schedule Name
    ,                         !- Diffuse Solar Day Schedule Name
    ,                         !- ASHRAE Clear Sky Optical Depth for Beam Irradiance taub
    ,                         !- ASHRAE Clear Sky Optical Depth for Diffuse Irradiance taud
    1;                        !- Sky Clearness

RunPeriod,
    ,                         !- Name
    1,                        !- Begin Month
    1,                        !- Begin Day of Month
    ,                         !- Begin Year
    12,                       !- End Month
    31,                       !- End Day of Month
    ,                         !- End Year
    Sunday,                   !- Day of Week for Start Day
    Yes,                      !- Use Weather File Holidays and Special Days
    Yes,                      !- Use Weather File Daylight Saving Period
    No,                       !- Apply Weekend Holiday Rule
    Yes,                      !- Use Weather File Rain Indicators
    Yes;                      !- Use Weather File Snow Indicators

ScheduleTypeLimits,
    Any Number,               !- Name
    ,                         !- Lower Limit Value
    ,                         !- Upper Limit Value
    ,                         !- Numeric Type
    Dimensionless;            !- Unit Type

SCHEDULE:COMPACT,
    bldg_light_sch,           !- Name
    Any Number,               !- Schedule Type Limits Name
    Through: 12/31,           !- Field 1
    For: WinterDesignDay,     !- Field 2
    Until: 24:00,             !- Field 3
    0,                        !- Field 4
    For: SummerDesignDay,     !- Field 5
    Until: 24:00,             !- Field 6
    1,                        !- Field 7
    For: Weekdays,            !- Field 8
    Until: 5:00,              !- Field 9
    0.05,                     !- Field 10
    Until: 7:00,              !- Field 11
    0.1,                      !- Field 12
    Until: 8:00,              !- Field 13
    0.3,                      !- Field 14
    Until: 17:00,             !- Field 15
    0.9,                      !- Field 16
    Until: 18:00,             !- Field 17
    0.5,                      !- Field 18
    Until: 20:00,             !- Field 19
    0.3,                      !- Field 20
    Until: 22:00,             !- Field 21
    0.2,                      !- Field 22
    Until: 23:00,             !- Field 23
    0.1,                      !- Field 24
    Until: 24:00,             !- Field 25
    0.05,                     !- Field 26
    For: Saturday,            !- Field 27
    Until: 6:00,              !- Field 28
    0.05,                     !- Field 29
    Until: 8:00,              !- Field 30
    0.1,                      !- Field 31
    Until: 12:00,             !- Field 32
    0.3,                      !- Field 33
    Until: 17:00,             !- Field 34
    0.15,                     !- Field 35
    Until: 24:00,             !- Field 36
    0.05,                     !- Field 37
    For: Sunday,              !- Field 38
    Until: 24:00,             !- Field 39
    0.05,                     !- Field 40
    For: Holidays,            !- Field 41
    Until: 24:00,             !- Field 42
    0.05,                     !- Field 43
    For: AllOtherDays,        !- Field 44
    Until: 24:00,             !- Field 45
    0.05;                     !- Field 46

SCHEDULE:COMPACT,
    bldg_occ_sch,             !- Name
    Any Number,               !- Schedule Type Limits Name
    Through: 12/31,           !- Field 1
    For: WinterDesignDay,     !- Field 2
    Until: 24:00,             !- Field 3
    0,                        !- Field 4
    For: SummerDesignDay,     !- Field 5
    Until: 24:00,             !- Field 6
    1,                        !- Field 7
    For: Weekdays,            !- Field 8
    Until: 5:00,              !- Field 9
    0.05,                     !- Field 10
    Until: 7:00,              !- Field 11
    0.1,                      !- Field 12
    Until: 8:00,              !- Field 13
    0.3,                      !- Field 14
    Until: 17:00,             !- Field 15
    0.9,                      !- Field 16
    Until: 18:00,             !- Field 17
    0.5,                      !- Field 18
    Until: 20:00,             !- Field 19
    0.3,                      !- Field 20
    Until: 22:00,             !- Field 21
    0.2,                      !- Field 22
    Until: 23:00,             !- Field 23
    0.1,                      !- Field 24
    Until: 24:00,             !- Field 25
    0.05,                     !- Field 26
    For: Saturday,            !- Field 27
    Until: 6:00,              !- Field 28
    0.05,                     !- Field 29
    Until: 8:00,              !- Field 30
    0.1,                      !- Field 31
    Until: 12:00,             !- Field 32
    0.3,                      !- Field 33
    Until: 17:00,             !- Field 34
    0.15,                     !- Field 35
    Until: 24:00,             !- Field 36
    0.05,                     !- Field 37
    For: Sunday,              !- Field 38
    Until: 24:00,             !- Field 39
    0.05,                     !- Field 40
    For: Holidays,            !- Field 41
    Until: 24:00,             !- Field 42
    0.05,                     !- Field 43
    For: AllOtherDays,        !- Field 44
    Until: 24:00,             !- Field 45
    0.05;                     !- Field 46

SCHEDULE:COMPACT,
    bldg_hvac_operation_sch,    !- Name
    Any Number,               !- Schedule Type Limits Name
    Through: 12/31,           !- Field 1
    For: WinterDesignDay,     !- Field 2
    Until: 24:00,             !- Field 3
    0,                        !- Field 4
    For: SummerDesignDay,     !- Field 5
    Until: 24:00,             !- Field 6
    1,                        !- Field 7
    For: Weekdays,            !- Field 8
    Until: 5:00,              !- Field 9
    0.05,                     !- Field 10
    Until: 7:00,              !- Field 11
    0.1,                      !- Field 12
    Until: 8:00,              !- Field 13
    0.3,                      !- Field 14
    Until: 17:00,             !- Field 15
    0.9,                      !- Field 16
    Until: 18:00,             !- Field 17
    0.5,                      !- Field 18
    Until: 20:00,             !- Field 19
    0.3,                      !- Field 20
    Until: 22:00,             !- Field 21
    0.2,                      !- Field 22
    Until: 23:00,             !- Field 23
    0.1,                      !- Field 24
    Until: 24:00,             !- Field 25
    0.05,                     !- Field 26
    For: Saturday,            !- Field 27
    Until: 6:00,              !- Field 28
    0.05,                     !- Field 29
    Until: 8:00,              !- Field 30
    0.1,                      !- Field 31
    Until: 12:00,             !- Field 32
    0.3,                      !- Field 33
    Until: 17:00,             !- Field 34
    0.15,                     !- Field 35
    Until: 24:00,             !- Field 36
    0.05,                     !- Field 37
    For: Sunday,              !- Field 38
    Until: 24:00,             !- Field 39
    0.05,                     !- Field 40
    For: Holidays,            !- Field 41
    Until: 24:00,             !- Field 42
    0.05,                     !- Field 43
    For: AllOtherDays,        !- Field 44
    Until: 24:00,             !- Field 45
    0.05;                     !- Field 46

SCHEDULE:COMPACT,
    bldg_htg_setp_sch,        !- Name
    Any Number,               !- Schedule Type Limits Name
    Through: 12/31,           !- Field 1
    For: WinterDesignDay,     !- Field 2
    Until: 24:00,             !- Field 3
    0,                        !- Field 4
    For: SummerDesignDay,     !- Field 5
    Until: 24:00,             !- Field 6
    1,                        !- Field 7
    For: Weekdays,            !- Field 8
    Until: 5:00,              !- Field 9
    0.05,                     !- Field 10
    Until: 7:00,              !- Field 11
    0.1,                      !- Field 12
    Until: 8:00,              !- Field 13
    0.3,                      !- Field 14
    Until: 17:00,             !- Field 15
    0.9,                      !- Field 16
    Until: 18:00,             !- Field 17
    0.5,                      !- Field 18
    Until: 20:00,             !- Field 19
    0.3,                      !- Field 20
    Until: 22:00,             !- Field 21
    0.2,                      !- Field 22
    Until: 23:00,             !- Field 23
    0.1,                      !- Field 24
    Until: 24:00,             !- Field 25
    0.05,                     !- Field 26
    For: Saturday,            !- Field 27
    Until: 6:00,              !- Field 28
    0.05,                     !- Field 29
    Until: 8:00,              !- Field 30
    0.1,                      !- Field 31
    Until: 12:00,             !- Field 32
    0.3,                      !- Field 33
    Until: 17:00,             !- Field 34
    0.15,                     !- Field 35
    Until: 24:00,             !- Field 36
    0.05,                     !- Field 37
    For: Sunday,              !- Field 38
    Until: 24:00,             !- Field 39
    0.05,                     !- Field 40
    For: Holidays,            !- Field 41
    Until: 24:00,             !- Field 42
    0.05,                     !- Field 43
    For: AllOtherDays,        !- Field 44
    Until: 24:00,             !- Field 45
    0.05;                     !- Field 46

SCHEDULE:COMPACT,
    bldg_clg_setp_sch,        !- Name
    Any Number,               !- Schedule Type Limits Name
    Through: 12/31,           !- Field 1
    For: WinterDesignDay,     !- Field 2
    Until: 24:00,             !- Field 3
    0,                        !- Field 4
    For: SummerDesignDay,     !- Field 5
    Until: 24:00,             !- Field 6
    1,                        !- Field 7
    For: Weekdays,            !- Field 8
    Until: 5:00,              !- Field 9
    0.05,                     !- Field 10
    Until: 7:00,              !- Field 11
    0.1,                      !- Field 12
    Until: 8:00,              !- Field 13
    0.3,                      !- Field 14
    Until: 17:00,             !- Field 15
    0.9,                      !- Field 16
    Until: 18:00,             !- Field 17
    0.5,                      !- Field 18
    Until: 20:00,             !- Field 19
    0.3,                      !- Field 20
    Until: 22:00,             !- Field 21
    0.2,                      !- Field 22
    Until: 23:00,             !- Field 23
    0.1,                      !- Field 24
    Until: 24:00,             !- Field 25
    0.05,                     !- Field 26
    For: Saturday,            !- Field 27
    Until: 6:00,              !- Field 28
    0.05,                     !- Field 29
    Until: 8:00,              !- Field 30
    0.1,                      !- Field 31
    Until: 12:00,             !- Field 32
    0.3,                      !- Field 33
    Until: 17:00,             !- Field 34
    0.15,                     !- Field 35
    Until: 24:00,             !- Field 36
    0.05,                     !- Field 37
    For: Sunday,              !- Field 38
    Until: 24:00,             !- Field 39
    0.05,                     !- Field 40
    For: Holidays,            !- Field 41
    Until: 24:00,             !- Field 42
    0.05,                     !- Field 43
    For: AllOtherDays,        !- Field 44
    Until: 24:00,             !- Field 45
    0.05;                     !- Field 46

SCHEDULE:COMPACT,
    bldg_electric_equipment_sch,    !- Name
    Any Number,               !- Schedule Type Limits Name
    Through: 12/31,           !- Field 1
    For: WinterDesignDay,     !- Field 2
    Until: 24:00,             !- Field 3
    0,                        !- Field 4
    For: SummerDesignDay,     !- Field 5
    Until: 24:00,             !- Field 6
    1,                        !- Field 7
    For: Weekdays,            !- Field 8
    Until: 5:00,              !- Field 9
    0.05,                     !- Field 10
    Until: 7:00,              !- Field 11
    0.1,                      !- Field 12
    Until: 8:00,              !- Field 13
    0.3,                      !- Field 14
    Until: 17:00,             !- Field 15
    0.9,                      !- Field 16
    Until: 18:00,             !- Field 17
    0.5,                      !- Field 18
    Until: 20:00,             !- Field 19
    0.3,                      !- Field 20
    Until: 22:00,             !- Field 21
    0.2,                      !- Field 22
    Until: 23:00,             !- Field 23
    0.1,                      !- Field 24
    Until: 24:00,             !- Field 25
    0.05,                     !- Field 26
    For: Saturday,            !- Field 27
    Until: 6:00,              !- Field 28
    0.05,                     !- Field 29
    Until: 8:00,              !- Field 30
    0.1,                      !- Field 31
    Until: 12:00,             !- Field 32
    0.3,                      !- Field 33
    Until: 17:00,             !- Field 34
    0.15,                     !- Field 35
    Until: 24:00,             !- Field 36
    0.05,                     !- Field 37
    For: Sunday,              !- Field 38
    Until: 24:00,             !- Field 39
    0.05,                     !- Field 40
    For: Holidays,            !- Field 41
    Until: 24:00,             !- Field 42
    0.05,                     !- Field 43
    For: AllOtherDays,        !- Field 44
    Until: 24:00,             !- Field 45
    0.05;                     !- Field 46

SCHEDULE:COMPACT,
    bldg_infiltration_sch,    !- Name
    Any Number,               !- Schedule Type Limits Name
    Through: 12/31,           !- Field 1
    For: WinterDesignDay,     !- Field 2
    Until: 24:00,             !- Field 3
    0,                        !- Field 4
    For: SummerDesignDay,     !- Field 5
    Until: 24:00,             !- Field 6
    1,                        !- Field 7
    For: Weekdays,            !- Field 8
    Until: 5:00,              !- Field 9
    0.05,                     !- Field 10
    Until: 7:00,              !- Field 11
    0.1,                      !- Field 12
    Until: 8:00,              !- Field 13
    0.3,                      !- Field 14
    Until: 17:00,             !- Field 15
    0.9,                      !- Field 16
    Until: 18:00,             !- Field 17
    0.5,                      !- Field 18
    Until: 20:00,             !- Field 19
    0.3,                      !- Field 20
    Until: 22:00,             !- Field 21
    0.2,                      !- Field 22
    Until: 23:00,             !- Field 23
    0.1,                      !- Field 24
    Until: 24:00,             !- Field 25
    0.05,                     !- Field 26
    For: Saturday,            !- Field 27
    Until: 6:00,              !- Field 28
    0.05,                     !- Field 29
    Until: 8:00,              !- Field 30
    0.1,                      !- Field 31
    Until: 12:00,             !- Field 32
    0.3,                      !- Field 33
    Until: 17:00,             !- Field 34
    0.15,                     !- Field 35
    Until: 24:00,             !- Field 36
    0.05,                     !- Field 37
    For: Sunday,              !- Field 38
    Until: 24:00,             !- Field 39
    0.05,                     !- Field 40
    For: Holidays,            !- Field 41
    Until: 24:00,             !- Field 42
    0.05,                     !- Field 43
    For: AllOtherDays,        !- Field 44
    Until: 24:00,             !- Field 45
    0.05;                     !- Field 46

SCHEDULE:COMPACT,
    activity_sch,             !- Name
    Any Number,               !- Schedule Type Limits Name
    Through: 12/31,           !- Field 1
    For: WinterDesignDay,     !- Field 2
    Until: 24:00,             !- Field 3
    0,                        !- Field 4
    For: SummerDesignDay,     !- Field 5
    Until: 24:00,             !- Field 6
    1,                        !- Field 7
    For: Weekdays,            !- Field 8
    Until: 5:00,              !- Field 9
    0.05,                     !- Field 10
    Until: 7:00,              !- Field 11
    0.1,                      !- Field 12
    Until: 8:00,              !- Field 13
    0.3,                      !- Field 14
    Until: 17:00,             !- Field 15
    0.9,                      !- Field 16
    Until: 18:00,             !- Field 17
    0.5,                      !- Field 18
    Until: 20:00,             !- Field 19
    0.3,                      !- Field 20
    Until: 22:00,             !- Field 21
    0.2,                      !- Field 22
    Until: 23:00,             !- Field 23
    0.1,                      !- Field 24
    Until: 24:00,             !- Field 25
    0.05,                     !- Field 26
    For: Saturday,            !- Field 27
    Until: 6:00,              !- Field 28
    0.05,                     !- Field 29
    Until: 8:00,              !- Field 30
    0.1,                      !- Field 31
    Until: 12:00,             !- Field 32
    0.3,                      !- Field 33
    Until: 17:00,             !- Field 34
    0.15,                     !- Field 35
    Until: 24:00,             !- Field 36
    0.05,                     !- Field 37
    For: Sunday,              !- Field 38
    Until: 24:00,             !- Field 39
    0.05,                     !- Field 40
    For: Holidays,            !- Field 41
    Until: 24:00,             !- Field 42
    0.05,                     !- Field 43
    For: AllOtherDays,        !- Field 44
    Until: 24:00,             !- Field 45
    0.05;                     !- Field 46

SCHEDULE:COMPACT,
    always_on,                !- Name
    Any Number,               !- Schedule Type Limits Name
    Through: 12/31,           !- Field 1
    For: AllDays,             !- Field 2
    Until: 24:00,             !- Field 3
    1;                        !- Field 4

MATERIAL,
    DefaultMaterial,          !- Name
    Rough,                    !- Roughness
    0.1,                      !- Thickness
    0.1,                      !- Conductivity
    1000,                     !- Density
    1000,                     !- Specific Heat
    0.9,                      !- Thermal Absorptance
    0.7,                      !- Solar Absorptance
    0.7;                      !- Visible Absorptance

WINDOWMATERIAL:SIMPLEGLAZINGSYSTEM,
    DefaultGlazing,           !- Name
    2.7,                      !- UFactor
    0.763,                    !- Solar Heat Gain Coefficient
    0.8;                      !- Visible Transmittance

CONSTRUCTION,
    Project Wall,             !- Name
    DefaultMaterial;          !- Outside Layer

CONSTRUCTION,
    Project Partition,        !- Name
    DefaultMaterial;          !- Outside Layer

CONSTRUCTION,
    Project Floor,            !- Name
    DefaultMaterial;          !- Outside Layer

CONSTRUCTION,
    Project Flat Roof,        !- Name
    DefaultMaterial;          !- Outside Layer

CONSTRUCTION,
    Project Ceiling,          !- Name
    DefaultMaterial;          !- Outside Layer

CONSTRUCTION,
    Project Door,             !- Name
    DefaultMaterial;          !- Outside Layer

CONSTRUCTION,
    Project External Window,    !- Name
    DefaultGlazing;           !- Outside Layer

GlobalGeometryRules,
    UpperLeftCorner,          !- Starting Vertex Position
    CounterClockWise,         !- Vertex Entry Direction
    World;                    !- Coordinate System

ZONE,
    Block office_south_zone Storey 0,    !- Name
    0,                        !- Direction of Relative North
    0,                        !- X Origin
    0,                        !- Y Origin
    0,                        !- Z Origin
    1,                        !- Type
    1,                        !- Multiplier
    autocalculate,            !- Ceiling Height
    autocalculate,            !- Volume
    autocalculate,            !- Floor Area
    ,                         !- Zone Inside Convection Algorithm
    ,                         !- Zone Outside Convection Algorithm
    Yes;                      !- Part of Total Floor Area

ZONE,
    Block office_west_zone Storey 0,    !- Name
    0,                        !- Direction of Relative North
    0,                        !- X Origin
    0,                        !- Y Origin
    0,                        !- Z Origin
    1,                        !- Type
    1,                        !- Multiplier
    autocalculate,            !- Ceiling Height
    autocalculate,            !- Volume
    autocalculate,            !- Floor Area
    ,                         !- Zone Inside Convection Algorithm
    ,                         !- Zone Outside Convection Algorithm
    Yes;                      !- Part of Total Floor Area

ZONE,
    Block office_north_zone Storey 0,    !- Name
    0,                        !- Direction of Relative North
    0,                        !- X Origin
    0,                        !- Y Origin
    0,                        !- Z Origin
    1,                        !- Type
    1,                        !- Multiplier
    autocalculate,            !- Ceiling Height
    autocalculate,            !- Volume
    autocalculate,            !- Floor Area
    ,                         !- Zone Inside Convection Algorithm
    ,                         !- Zone Outside Convection Algorithm
    Yes;                      !- Part of Total Floor Area

ZONE,
    Block office_east_zone Storey 0,    !- Name
    0,                        !- Direction of Relative North
    0,                        !- X Origin
    0,                        !- Y Origin
    0,                        !- Z Origin
    1,                        !- Type
    1,                        !- Multiplier
    autocalculate,            !- Ceiling Height
    autocalculate,            !- Volume
    autocalculate,            !- Floor Area
    ,                         !- Zone Inside Convection Algorithm
    ,                         !- Zone Outside Convection Algorithm
    Yes;                      !- Part of Total Floor Area

ZONE,
    Block office_core_zone Storey 0,    !- Name
    0,                        !- Direction of Relative North
    0,                        !- X Origin
    0,                        !- Y Origin
    0,                        !- Z Origin
    1,                        !- Type
    1,                        !- Multiplier
    autocalculate,            !- Ceiling Height
    autocalculate,            !- Volume
    autocalculate,            !- Floor Area
    ,                         !- Zone Inside Convection Algorithm
    ,                         !- Zone Outside Convection Algorithm
    Yes;                      !- Part of Total Floor Area

ZONELIST,
    zone_list_office,         !- Name
    Block office_south_zone Storey 0,    !- Zone 1 Name
    Block office_west_zone Storey 0,    !- Zone 2 Name
    Block office_north_zone Storey 0,    !- Zone 3 Name
    Block office_east_zone Storey 0,    !- Zone 4 Name
    Block office_core_zone Storey 0;    !- Zone 5 Name

BUILDINGSURFACE:DETAILED,
    Block office_south_zone Storey 0 Wall 0001,    !- Name
    wall,                     !- Surface Type
    Project Wall,             !- Construction Name
    Block office_south_zone Storey 0,    !- Zone Name
    outdoors,                 !- Outside Boundary Condition
    ,                         !- Outside Boundary Condition Object
    SunExposed,               !- Sun Exposure
    WindExposed,              !- Wind Exposure
    autocalculate,            !- View Factor to Ground
    autocalculate,            !- Number of Vertices
    22.427184000000004,       !- Vertex 1 Xcoordinate
    0,                        !- Vertex 1 Ycoordinate
    4.572,                    !- Vertex 1 Zcoordinate
    22.427184000000004,       !- Vertex 2 Xcoordinate
    0,                        !- Vertex 2 Ycoordinate
    0,                        !- Vertex 2 Zcoordinate
    22.427184000000004,       !- Vertex 3 Xcoordinate
    5.715,                    !- Vertex 3 Ycoordinate
    0,                        !- Vertex 3 Zcoordinate
    22.427184000000004,       !- Vertex 4 Xcoordinate
    5.715,                    !- Vertex 4 Ycoordinate
    4.572;                    !- Vertex 4 Zcoordinate

BUILDINGSURFACE:DETAILED,
    Block office_south_zone Storey 0 Wall 0002,    !- Name
    wall,                     !- Surface Type
    Project Wall,             !- Construction Name
    Block office_south_zone Storey 0,    !- Zone Name
    outdoors,                 !- Outside Boundary Condition
    ,                         !- Outside Boundary Condition Object
    SunExposed,               !- Sun Exposure
    WindExposed,              !- Wind Exposure
    autocalculate,            !- View Factor to Ground
    autocalculate,            !- Number of Vertices
    22.427184000000004,       !- Vertex 1 Xcoordinate
    5.715,                    !- Vertex 1 Ycoordinate
    4.572,                    !- Vertex 1 Zcoordinate
    22.427184000000004,       !- Vertex 2 Xcoordinate
    5.715,                    !- Vertex 2 Ycoordinate
    0,                        !- Vertex 2 Zcoordinate
    7.055104000000002,        !- Vertex 3 Xcoordinate
    5.715,                    !- Vertex 3 Ycoordinate
    0,                        !- Vertex 3 Zcoordinate
    7.055104000000002,        !- Vertex 4 Xcoordinate
    5.715,                    !- Vertex 4 Ycoordinate
    4.572;                    !- Vertex 4 Zcoordinate

BUILDINGSURFACE:DETAILED,
    Block office_south_zone Storey 0 Wall 0003,    !- Name
    wall,                     !- Surface Type
    Project Wall,             !- Construction Name
    Block office_south_zone Storey 0,    !- Zone Name
    outdoors,                 !- Outside Boundary Condition
    ,                         !- Outside Boundary Condition Object
    SunExposed,               !- Sun Exposure
    WindExposed,              !- Wind Exposure
    autocalculate,            !- View Factor to Ground
    autocalculate,            !- Number of Vertices
    7.055104000000002,        !- Vertex 1 Xcoordinate
    5.715,                    !- Vertex 1 Ycoordinate
    4.572,                    !- Vertex 1 Zcoordinate