!-Generator IDFEditor 1.50
!-Option SortedOrder ViewInIPunits

!-NOTE: All comments with '!-' are ignored by the IDFEditor and are generated automatically.
!-      Use '!' comments if they need to be retained when using the IDFEditor.


!-   ===========  ALL OBJECTS IN CLASS: VERSION ===========

Version,
    9.0;                     !- Version Identifier


!-   ===========  ALL OBJECTS IN CLASS: SIMULATIONCONTROL ===========

SimulationControl,
    Yes,                     !- Do Zone Sizing Calculation
    Yes,                     !- Do System Sizing Calculation
    Yes,                     !- Do Plant Sizing Calculation
    Yes,                     !- Run Simulation for Sizing Periods
    Yes;                     !- Run Simulation for Weather File Run Periods


!-   ===========  ALL OBJECTS IN CLASS: BUILDING ===========

Building,
    test_building,           !- Name
    0,                       !- North Axis {deg}
    Suburbs,                 !- Terrain
    0.04,                    !- Loads Convergence Tolerance Value
    0.4,                     !- Temperature Convergence Tolerance Value {deltaC}
    FullInteriorAndExterior, !- Solar Distribution
    25,                      !- Maximum Number of Warmup Days
    6;                       !- Minimum Number of Warmup Days


!-   ===========  ALL OBJECTS IN CLASS: TIMESTEP ===========

Timestep,
    6;                       !- Number of Timesteps per Hour


!-   ===========  ALL OBJECTS IN CLASS: SIZINGPERIOD:DESIGNDAY ===========

SizingPeriod:DesignDay,
    DENVER_STAPLETON Ann Htg 99.6% Condns DB,  !- Name
    12,                      !- Month
    21,                      !- Day of Month
    WinterDesignDay,         !- Day Type
    -20,                     !- Maximum Dry-Bulb Temperature {C}
    0,                       !- Daily Dry-Bulb Temperature Range {deltaC}
    ,                        !- Dry-Bulb Temperature Range Modifier Type
    ,                        !- Dry-Bulb Temperature Range Modifier Day Schedule Name
    Wetbulb,                 !- Humidity Condition Type
    -20,                     !- Wetbulb or DewPoint at Maximum Dry-Bulb {C}
    ,                        !- Humidity Condition Day Schedule Name
    ,                        !- Humidity Ratio at Maximum Dry-Bulb {kgWater/kgDryAir}
    ,                        !- Enthalpy at Maximum Dry-Bulb {J/kg}
    ,                        !- Daily Wet-Bulb Temperature Range {deltaC}
    83411,                   !- Barometric Pressure {Pa}
    2.3,                     !- Wind Speed {m/s}
    180,                     !- Wind Direction {deg}
    No,                      !- Rain Indicator
    No,                      !- Snow Indicator
    No,                      !- Daylight Saving Time Indicator
    ASHRAEClearSky,          !- Solar Model Indicator
    ,                        !- Beam Solar Day Schedule Name
    ,                        !- Diffuse Solar Day Schedule Name
    ,                        !- ASHRAE Clear Sky Optical Depth for Beam Irradiance (taub) {dimensionless}
    ,                        !- ASHRAE Clear Sky Optical Depth for Diffuse Irradiance (taud) {dimensionless}
    0;                       !- Sky Clearness

SizingPeriod:DesignDay,
    DENVER_STAPLETON Ann Clg .4% Condns DB=>MWB,  !- Name
    7,                       !- Month
    21,                      !- Day of Month
    SummerDesignDay,         !- Day Type
    34.1,                    !- Maximum Dry-Bulb Temperature {C}
    15.2,                    !- Daily Dry-Bulb Temperature Range {deltaC}
    ,                        !- Dry-Bulb Temperature Range Modifier Type
    ,                        !- Dry-Bulb Temperature Range Modifier Day Schedule Name
    Wetbulb,                 !- Humidity Condition Type
    15.8,                    !- Wetbulb or DewPoint at Maximum Dry-Bulb {C}
    ,                        !- Humidity Condition Day Schedule Name
    ,                        !- Humidity Ratio at Maximum Dry-Bulb {kgWater/kgDryAir}
    ,                        !- Enthalpy at Maximum Dry-Bulb {J/kg}
    ,                        !- Daily Wet-Bulb Temperature Range {deltaC}
    83411,                   !- Barometric Pressure {Pa}
    4,                       !- Wind Speed {m/s}
    120,                     !- Wind Direction {deg}
    No,                      !- Rain Indicator
    No,                      !- Snow Indicator
    No,                      !- Daylight Saving Time Indicator
    ASHRAEClearSky,          !- Solar Model Indicator
    ,                        !- Beam Solar Day Schedule Name
    ,                        !- Diffuse Solar Day Schedule Name
    ,                        !- ASHRAE Clear Sky Optical Depth for Beam Irradiance (taub) {dimensionless}
    ,                        !- ASHRAE Clear Sky Optical Depth for Diffuse Irradiance (taud) {dimensionless}
    1;                       !- Sky Clearness


!-   ===========  ALL OBJECTS IN CLASS: RUNPERIOD ===========

RunPeriod,
    ,                        !- Name
    1,                       !- Begin Month
    1,                       !- Begin Day of Month
    ,                        !- Begin Year
    12,                      !- End Month
    31,                      !- End Day of Month
    ,                        !- End Year
    Sunday,                  !- Day of Week for Start Day
    Yes,                     !- Use Weather File Holidays and Special Days
    Yes,                     !- Use Weather File Daylight Saving Period
    No,                      !- Apply Weekend Holiday Rule
    Yes,                     !- Use Weather File Rain Indicators
    Yes;                     !- Use Weather File Snow Indicators


!-   ===========  ALL OBJECTS IN CLASS: SCHEDULETYPELIMITS ===========

ScheduleTypeLimits,
    Any Number,              !- Name
    ,                        !- Lower Limit Value
    ,                        !- Upper Limit Value
    ,                        !- Numeric Type
    Dimensionless;           !- Unit Type


!-   ===========  ALL OBJECTS IN CLASS: SCHEDULE:COMPACT ===========

Schedule:Compact,
    bldg_light_sch,          !- Name
    Any Number,              !- Schedule Type Limits Name
    Through: 12/31,          !- Field 1
    For: WinterDesignDay,    !- Field 2
    Until: 24:00,            !- Field 3
    0,                       !- Field 4
    For: SummerDesignDay,    !- Field 5
    Until: 24:00,            !- Field 6
    1,                       !- Field 7
    For: Weekdays,           !- Field 8
    Until: 5:00,             !- Field 9
    0.05,                    !- Field 10
    Until: 7:00,             !- Field 11
    0.1,                     !- Field 12
    Until: 8:00,             !- Field 13
    0.3,                     !- Field 14
    Until: 17:00,            !- Field 15
    0.9,                     !- Field 16
    Until: 18:00,            !- Field 17
    0.5,                     !- Field 18
    Until: 20:00,            !- Field 19
    0.3,                     !- Field 20
    Until: 22:00,            !- Field 21
    0.2,                     !- Field 22
    Until: 23:00,            !- Field 23
    0.1,                     !- Field 24
    Until: 24:00,            !- Field 25
    0.05,                    !- Field 26
    For: Saturday,           !- Field 27
    Until: 6:00,             !- Field 28
    0.05,                    !- Field 29
    Until: 8:00,             !- Field 30
    0.1,                     !- Field 31
    Until: 12:00,            !- Field 32
    0.3,                     !- Field 33
    Until: 17:00,            !- Field 34
    0.15,                    !- Field 35
    Until: 24:00,            !- Field 36
    0.05,                    !- Field 37
    For: Sunday,             !- Field 38
    Until: 24:00,            !- Field 39
    0.05,                    !- Field 40
    For: Holidays,           !- Field 41
    Until: 24:00,            !- Field 42
    0.05,                    !- Field 43
    For: AllOtherDays,       !- Field 44
    Until: 24:00,            !- Field 45
    0.05;                    !- Field 46

Schedule:Compact,
    bldg_occ_sch,            !- Name
    Any Number,              !- Schedule Type Limits Name
    Through: 12/31,          !- Field 1
    For: WinterDesignDay,    !- Field 2
    Until: 24:00,            !- Field 3
    0,                       !- Field 4
    For: SummerDesignDay,    !- Field 5
    Until: 24:00,            !- Field 6
    1,                       !- Field 7
    For: Weekdays,           !- Field 8
    Until: 5:00,             !- Field 9
    0.05,                    !- Field 10
    Until: 7:00,             !- Field 11
    0.1,                     !- Field 12
    Until: 8:00,             !- Field 13
    0.3,                     !- Field 14
    Until: 17:00,            !- Field 15
    0.9,                     !- Field 16
    Until: 18:00,            !- Field 17
    0.5,                     !- Field 18
    Until: 20:00,            !- Field 19
    0.3,                     !- Field 20
    Until: 22:00,            !- Field 21
    0.2,                     !- Field 22
    Until: 23:00,            !- Field 23
    0.1,                     !- Field 24
    Until: 24:00,            !- Field 25
    0.05,                    !- Field 26
    For: Saturday,           !- Field 27
    Until: 6:00,             !- Field 28
    0.05,                    !- Field 29
    Until: 8:00,             !- Field 30
    0.1,                     !- Field 31
    Until: 12:00,            !- Field 32
    0.3,                     !- Field 33
    Until: 17:00,            !- Field 34
    0.15,                    !- Field 35
    Until: 24:00,            !- Field 36
    0.05,                    !- Field 37
    For: Sunday,             !- Field 38
    Until: 24:00,            !- Field 39
    0.05,                    !- Field 40
    For: Holidays,           !- Field 41
    Until: 24:00,            !- Field 42
    0.05,                    !- Field 43
    For: AllOtherDays,       !- Field 44
    Until: 24:00,            !- Field 45
    0.05;                    !- Field 46

Schedule:Compact,
    bldg_hvac_operation_sch, !- Name
    Any Number,              !- Schedule Type Limits Name
    Through: 12/31,          !- Field 1
    For: WinterDesignDay,    !- Field 2
    Until: 24:00,            !- Field 3
    0,                       !- Field 4
    For: SummerDesignDay,    !- Field 5
    Until: 24:00,            !- Field 6
    1,                       !- Field 7
    For: Weekdays,           !- Field 8
    Until: 5:00,             !- Field 9
    0.05,                    !- Field 10
    Until: 7:00,             !- Field 11
    0.1,                     !- Field 12
    Until: 8:00,             !- Field 13
    0.3,                     !- Field 14
    Until: 17:00,            !- Field 15
    0.9,                     !- Field 16
    Until: 18:00,            !- Field 17
    0.5,                     !- Field 18
    Until: 20:00,            !- Field 19
    0.3,                     !- Field 20
    Until: 22:00,            !- Field 21
    0.2,                     !- Field 22
    Until: 23:00,            !- Field 23
    0.1,                     !- Field 24
    Until: 24:00,            !- Field 25
    0.05,                    !- Field 26
    For: Saturday,           !- Field 27
    Until: 6:00,             !- Field 28
    0.05,                    !- Field 29
    Until: 8:00,             !- Field 30
    0.1,                     !- Field 31
    Until: 12:00,            !- Field 32
    0.3,                     !- Field 33
    Until: 17:00,            !- Field 34
    0.15,                    !- Field 35
    Until: 24:00,            !- Field 36
    0.05,                    !- Field 37
    For: Sunday,             !- Field 38
    Until: 24:00,            !- Field 39
    0.05,                    !- Field 40
    For: Holidays,           !- Field 41
    Until: 24:00,            !- Field 42
    0.05,                    !- Field 43
    For: AllOtherDays,       !- Field 44
    Until: 24:00,            !- Field 45
    0.05;                    !- Field 46

Schedule:Compact,
    bldg_htg_setp_sch,       !- Name
    Any Number,              !- Schedule Type Limits Name
    Through: 12/31,          !- Field 1
    For: WinterDesignDay,    !- Field 2
    Until: 24:00,            !- Field 3
    0,                       !- Field 4
    For: SummerDesignDay,    !- Field 5
    Until: 24:00,            !- Field 6
    1,                       !- Field 7
    For: Weekdays,           !- Field 8
    Until: 5:00,             !- Field 9
    0.05,                    !- Field 10
    Until: 7:00,             !- Field 11
    0.1,                     !- Field 12
    Until: 8:00,             !- Field 13
    0.3,                     !- Field 14
    Until: 17:00,            !- Field 15
    0.9,                     !- Field 16
    Until: 18:00,            !- Field 17
    0.5,                     !- Field 18
    Until: 20:00,            !- Field 19
    0.3,                     !- Field 20
    Until: 22:00,            !- Field 21
    0.2,                     !- Field 22
    Until: 23:00,            !- Field 23
    0.1,                     !- Field 24
    Until: 24:00,            !- Field 25
    0.05,                    !- Field 26
    For: Saturday,           !- Field 27
    Until: 6:00,             !- Field 28
    0.05,                    !- Field 29
    Until: 8:00,             !- Field 30
    0.1,                     !- Field 31
    Until: 12:00,            !- Field 32
    0.3,                     !- Field 33
    Until: 17:00,            !- Field 34
    0.15,                    !- Field 35
    Until: 24:00,            !- Field 36
    0.05,                    !- Field 37
    For: Sunday,             !- Field 38
    Until: 24:00,            !- Field 39
    0.05,                    !- Field 40
    For: Holidays,           !- Field 41
    Until: 24:00,            !- Field 42
    0.05,                    !- Field 43
    For: AllOtherDays,       !- Field 44
    Until: 24:00,            !- Field 45
    0.05;                    !- Field 46

Schedule:Compact,
    bldg_clg_setp_sch,       !- Name
    Any Number,              !- Schedule Type Limits Name
    Through: 12/31,          !- Field 1
    For: WinterDesignDay,    !- Field 2
    Until: 24:00,            !- Field 3
    0,                       !- Field 4
    For: SummerDesignDay,    !- Field 5
    Until: 24:00,            !- Field 6
    1,                       !- Field 7
    For: Weekdays,           !- Field 8
    Until: 5:00,             !- Field 9
    0.05,                    !- Field 10
    Until: 7:00,             !- Field 11
    0.1,                     !- Field 12
    Until: 8:00,             !- Field 13
    0.3,                     !- Field 14
    Until: 17:00,            !- Field 15
    0.9,                     !- Field 16
    Until: 18:00,            !- Field 17
    0.5,                     !- Field 18
    Until: 20:00,            !- Field 19
    0.3,                     !- Field 20
    Until: 22:00,            !- Field 21
    0.2,                     !- Field 22
    Until: 23:00,            !- Field 23
    0.1,                     !- Field 24
    Until: 24:00,            !- Field 25
    0.05,                    !- Field 26
    For: Saturday,           !- Field 27
    Until: 6:00,             !- Field 28
    0.05,                    !- Field 29
    Until: 8:00,             !- Field 30
    0.1,                     !- Field 31
    Until: 12:00,            !- Field 32
    0.3,                     !- Field 33
    Until: 17:00,            !- Field 34
    0.15,                    !- Field 35
    Until: 24:00,            !- Field 36
    0.05,                    !- Field 37
    For: Sunday,             !- Field 38
    Until: 24:00,            !- Field 39
    0.05,                    !- Field 40
    For: Holidays,           !- Field 41
    Until: 24:00,            !- Field 42
    0.05,                    !- Field 43
    For: AllOtherDays,       !- Field 44
    Until: 24:00,            !- Field 45
    0.05;                    !- Field 46

Schedule:Compact,
    bldg_electric_equipment_sch,  !- Name
    Any Number,              !- Schedule Type Limits Name
    Through: 12/31,          !- Field 1
    For: WinterDesignDay,    !- Field 2
    Until: 24:00,            !- Field 3
    0,                       !- Field 4
    For: SummerDesignDay,    !- Field 5
    Until: 24:00,            !- Field 6
    1,                       !- Field 7
    For: Weekdays,           !- Field 8
    Until: 5:00,             !- Field 9
    0.05,                    !- Field 10
    Until: 7:00,             !- Field 11
    0.1,                     !- Field 12
    Until: 8:00,             !- Field 13
    0.3,                     !- Field 14
    Until: 17:00,            !- Field 15
    0.9,                     !- Field 16
    Until: 18:00,            !- Field 17
    0.5,                     !- Field 18
    Until: 20:00,            !- Field 19
    0.3,                     !- Field 20
    Until: 22:00,            !- Field 21
    0.2,                     !- Field 22
    Until: 23:00,            !- Field 23
    0.1,                     !- Field 24
    Until: 24:00,            !- Field 25
    0.05,                    !- Field 26
    For: Saturday,           !- Field 27
    Until: 6:00,             !- Field 28
    0.05,                    !- Field 29
    Until: 8:00,             !- Field 30
    0.1,                     !- Field 31
    Until: 12:00,            !- Field 32
    0.3,                     !- Field 33
    Until: 17:00,            !- Field 34
    0.15,                    !- Field 35
    Until: 24:00,            !- Field 36
    0.05,                    !- Field 37
    For: Sunday,             !- Field 38
    Until: 24:00,            !- Field 39
    0.05,                    !- Field 40
    For: Holidays,           !- Field 41
    Until: 24:00,            !- Field 42
    0.05,                    !- Field 43
    For: AllOtherDays,       !- Field 44
    Until: 24:00,            !- Field 45
    0.05;                    !- Field 46

Schedule:Compact,
    bldg_infiltration_sch,   !- Name
    Any Number,              !- Schedule Type Limits Name
    Through: 12/31,          !- Field 1
    For: WinterDesignDay,    !- Field 2
    Until: 24:00,            !- Field 3
    0,                       !- Field 4
    For: SummerDesignDay,    !- Field 5
    Until: 24:00,            !- Field 6
    1,                       !- Field 7
    For: Weekdays,           !- Field 8
    Until: 5:00,             !- Field 9
    0.05,                    !- Field 10
    Until: 7:00,             !- Field 11
    0.1,                     !- Field 12
    Until: 8:00,             !- Field 13
    0.3,                     !- Field 14
    Until: 17:00,            !- Field 15
    0.9,                     !- Field 16
    Until: 18:00,            !- Field 17
    0.5,                     !- Field 18
    Until: 20:00,            !- Field 19
    0.3,                     !- Field 20
    Until: 22:00,            !- Field 21
    0.2,                     !- Field 22
    Until: 23:00,            !- Field 23
    0.1,                     !- Field 24
    Until: 24:00,            !- Field 25
    0.05,                    !- Field 26
    For: Saturday,           !- Field 27
    Until: 6:00,             !- Field 28
    0.05,                    !- Field 29
    Until: 8:00,             !- Field 30
    0.1,                     !- Field 31
    Until: 12:00,            !- Field 32
    0.3,                     !- Field 33
    Until: 17:00,            !- Field 34
    0.15,                    !- Field 35
    Until: 24:00,            !- Field 36
    0.05,                    !- Field 37
    For: Sunday,             !- Field 38
    Until: 24:00,            !- Field 39
    0.05,                    !- Field 40
    For: Holidays,           !- Field 41
    Until: 24:00,            !- Field 42
    0.05,                    !- Field 43
    For: AllOtherDays,       !- Field 44
    Until: 24:00,            !- Field 45
    0.05;                    !- Field 46

Schedule:Compact,
    activity_sch,            !- Name
    Any Number,              !- Schedule Type Limits Name
    Through: 12/31,          !- Field 1
    For: WinterDesignDay,    !- Field 2
    Until: 24:00,            !- Field 3
    0,                       !- Field 4
    For: SummerDesignDay,    !- Field 5
    Until: 24:00,            !- Field 6
    1,                       !- Field 7
    For: Weekdays,           !- Field 8
    Until: 5:00,             !- Field 9
    0.05,                    !- Field 10
    Until: 7:00,             !- Field 11
    0.1,                     !- Field 12
    Until: 8:00,             !- Field 13
    0.3,                     !- Field 14
    Until: 17:00,            !- Field 15
    0.9,                     !- Field 16
    Until: 18:00,            !- Field 17
    0.5,                     !- Field 18
    Until: 20:00,            !- Field 19
    0.3,                     !- Field 20
    Until: 22:00,            !- Field 21
    0.2,                     !- Field 22
    Until: 23:00,            !- Field 23
    0.1,                     !- Field 24
    Until: 24:00,            !- Field 25
    0.05,                    !- Field 26
    For: Saturday,           !- Field 27
    Until: 6:00,             !- Field 28
    0.05,                    !- Field 29
    Until: 8:00,             !- Field 30
    0.1,                     !- Field 31
    Until: 12:00,            !- Field 32
    0.3,                     !- Field 33
    Until: 17:00,            !- Field 34
    0.15,                    !- Field 35
    Until: 24:00,            !- Field 36
    0.05,                    !- Field 37
    For: Sunday,             !- Field 38
    Until: 24:00,            !- Field 39
    0.05,                    !- Field 40
    For: Holidays,           !- Field 41
    Until: 24:00,            !- Field 42
    0.05,                    !- Field 43
    For: AllOtherDays,       !- Field 44
    Until: 24:00,            !- Field 45
    0.05;                    !- Field 46

Schedule:Compact,
    always_on,               !- Name
    Any Number,              !- Schedule Type Limits Name
    Through: 12/31,          !- Field 1
    For: AllDays,            !- Field 2
    Until: 24:00,            !- Field 3
    1;                       !- Field 4


!-   ===========  ALL OBJECTS IN CLASS: MATERIAL ===========

Material,
    DefaultMaterial,         !- Name
    Rough,                   !- Roughness
    0.1,                     !- Thickness {m}
    0.1,                     !- Conductivity {W/m-K}
    1000,                    !- Density {kg/m3}
    1000,                    !- Specific Heat {J/kg-K}
    0.9,                     !- Thermal Absorptance
    0.7,                     !- Solar Absorptance
    0.7;                     !- Visible Absorptance


!-   ===========  ALL OBJECTS IN CLASS: WINDOWMATERIAL:SIMPLEGLAZINGSYSTEM ===========

WindowMaterial:SimpleGlazingSystem,
    DefaultGlazing,          !- Name
    2.7,                     !- U-Factor {W/m2-K}
    0.763,                   !- Solar Heat Gain Coefficient
    0.8;                     !- Visible Transmittance


!-   ===========  ALL OBJECTS IN CLASS: CONSTRUCTION ===========

Construction,
    Project Wall,            !- Name
    DefaultMaterial;         !- Outside Layer

Construction,
    Project Partition,       !- Name
    DefaultMaterial;         !- Outside Layer

Construction,
    Project Floor,           !- Name
    DefaultMaterial;         !- Outside Layer

Construction,
    Project Flat Roof,       !- Name
    DefaultMaterial;         !- Outside Layer

Construction,
    Project Ceiling,         !- Name
    DefaultMaterial;         !- Outside Layer

Construction,
    Project Door,            !- Name
    DefaultMaterial;         !- Outside Layer

Construction,
    Project External Window, !- Name
    DefaultGlazing;          !- Outside Layer


!-   ===========  ALL OBJECTS IN CLASS: GLOBALGEOMETRYRULES ===========

GlobalGeometryRules,
    UpperLeftCorner,         !- Starting Vertex Position
    CounterClockWise,        !- Vertex Entry Direction
    World;                   !- Coordinate System


!-   ===========  ALL OBJECTS IN CLASS: ZONE ===========

Zone,
    Block office_south_zone Storey 0,  !- Name
    0,                       !- Direction of Relative North {deg}
    0,                       !- X Origin {m}
    0,                       !- Y Origin {m}
    0,                       !- Z Origin {m}
    1,                       !- Type
    1,                       !- Multiplier
    autocalculate,           !- Ceiling Height {m}
    autocalculate,           !- Volume {m3}
    autocalculate,           !- Floor Area {m2}
    ,                        !- Zone Inside Convection Algorithm
    ,                        !- Zone Outside Convection Algorithm
    Yes;                     !- Part of Total Floor Area

Zone,
    Block office_west_zone Storey 0,  !- Name
    0,                       !- Direction of Relative North {deg}
    0,                       !- X Origin {m}
    0,                       !- Y Origin {m}
    0,                       !- Z Origin {m}
    1,                       !- Type
    1,                       !- Multiplier
    autocalculate,           !- Ceiling Height {m}
    autocalculate,           !- Volume {m3}
    autocalculate,           !- Floor Area {m2}
    ,                        !- Zone Inside Convection Algorithm
    ,                        !- Zone Outside Convection Algorithm
    Yes;                     !- Part of Total Floor Area

Zone,
    Block office_north_zone Storey 0,  !- Name
    0,                       !- Direction of Relative North {deg}
    0,                       !- X Origin {m}
    0,                       !- Y Origin {m}
    0,                       !- Z Origin {m}
    1,                       !- Type
    1,                       !- Multiplier
    autocalculate,           !- Ceiling Height {m}
    autocalculate,           !- Volume {m3}
    autocalculate,           !- Floor Area {m2}
    ,                        !- Zone Inside Convection Algorithm
    ,                        !- Zone Outside Convection Algorithm
    Yes;                     !- Part of Total Floor Area

Zone,
    Block office_east_zone Storey 0,  !- Name
    0,                       !- Direction of Relative North {deg}
    0,                       !- X Origin {m}
    0,                       !- Y Origin {m}
    0,                       !- Z Origin {m}
    1,                       !- Type
    1,                       !- Multiplier
    autocalculate,           !- Ceiling Height {m}
    autocalculate,           !- Volume {m3}
    autocalculate,           !- Floor Area {m2}
    ,                        !- Zone Inside Convection Algorithm
    ,                        !- Zone Outside Convection Algorithm
    Yes;                     !- Part of Total Floor Area

Zone,
    Block office_core_zone Storey 0,  !- Name
    0,                       !- Direction of Relative North {deg}
    0,                       !- X Origin {m}
    0,                       !- Y Origin {m}
    0,                       !- Z Origin {m}
    1,                       !- Type
    1,                       !- Multiplier
    autocalculate,           !- Ceiling Height {m}
    autocalculate,           !- Volume {m3}
    autocalculate,           !- Floor Area {m2}
    ,                        !- Zone Inside Convection Algorithm
    ,                        !- Zone Outside Convection Algorithm
    Yes;                     !- Part of Total Floor Area


!-   ===========  ALL OBJECTS IN CLASS: ZONELIST ===========

ZoneList,
    zone_list_office,        !- Name
    Block office_south_zone Storey 0,  !- Zone 1 Name
    Block office_west_zone Storey 0,  !- Zone 2 Name
    Block office_north_zone Storey 0,  !- Zone 3 Name
    Block office_east_zone Storey 0,  !- Zone 4 Name
    Block office_core_zone Storey 0;  !- Zone 5 Name


!-   ===========  ALL OBJECTS IN CLASS: BUILDINGSURFACE:DETAILED ===========

BuildingSurface:Detailed,
    Block office_south_zone Storey 0 Wall 0001,  !- Name
    wall,                    !- Surface Type
    Project Wall,            !- Construction Name
    Block office_south_zone Storey 0,  !- Zone Name
    outdoors,                !- Outside Boundary Condition
    ,                        !- Outside Boundary Condition Object
    SunExposed,              !- Sun Exposure
    WindExposed,             !- Wind Exposure
    autocalculate,           !- View Factor to Ground
    autocalculate,           !- Number of Vertices
    22.427184000000004,      !- Vertex 1 X-coordinate {m}
    0,                       !- Vertex 1 Y-coordinate {m}
    4.572,                   !- Vertex 1 Z-coordinate {m}
    22.427184000000004,      !- Vertex 2 X-coordinate {m}
    0,                       !- Vertex 2 Y-coordinate {m}
    0,                       !- Vertex 2 Z-coordinate {m}
    22.427184000000004,      !- Vertex 3 X-coordinate {m}
    5.715,                   !- Vertex 3 Y-coordinate {m}
    0,                       !- Vertex 3 Z-coordinate {m}
    22.427184000000004,      !- Vertex 4 X-coordinate {m}
    5.715,                   !- Vertex 4 Y-coordinate {m}
    4.572;                   !- Vertex 4 Z-coordinate {m}

BuildingSurface:Detailed,
    Block office_south_zone Storey 0 Wall 0002,  !- Name
    wall,                    !- Surface Type
    Project Wall,            !- Construction Name
    Block office_south_zone Storey 0,  !- Zone Name
    outdoors,                !- Outside Boundary Condition
    ,                        !- Outside Boundary Condition Object
    SunExposed,              !- Sun Exposure
    WindExposed,             !- Wind Exposure
    autocalculate,           !- View Factor to Ground
    autocalculate,           !- Number of Vertices
    22.427184000000004,      !- Vertex 1 X-coordinate {m}
    5.715,                   !- Vertex 1 Y-coordinate {m}
    4.572,                   !- Vertex 1 Z-coordinate {m}
    22.427184000000004,      !- Vertex 2 X-coordinate {m}