!- Unix Line endings 

Version,
    9.0;                      !- Version Identifier

SimulationControl,
    Yes,                      !- Do Zone Sizing Calculation
    Yes,                      !- Do System Sizing Calculation
    Yes,                      !- Do Plant Sizing Calculation
    Yes,                      !- Run Simulation for Sizing Periods
    Yes;                      !- Run Simulation for Weather File Run Periods

Building,
    test_building,            !- Name
    0,                        !- North Axis
    Suburbs,                  !- Terrain
    0.04,                     !- Loads Convergence Tolerance Value
    0.4,                      !- Temperature Convergence Tolerance Value
    FullInteriorAndExterior,    !- Solar Distribution
    25,                       !- Maximum Number of Warmup Days
    6;                        !- Minimum Number of Warmup Days

Timestep,
    6;                        !- Number of Timesteps per Hour

SizingPeriod:DesignDay,
    DENVER_STAPLETON Ann Htg 99.6% Condns DB,    !- Name
    12,                       !- Month
    21,                       !- Day of Month
    WinterDesignDay,          !- Day Type
    -20,                      !- Maximum DryBulb Temperature
    0,                        !- Daily DryBulb Temperature Range
    ,                         !- DryBulb Temperature Range Modifier Type
    ,                         !- DryBulb Temperature Range Modifier Day Schedule Name
    Wetbulb,                  !- Humidity Condition Type
    -20,                      !- Wetbulb or DewPoint at Maximum DryBulb
    ,                         !- Humidity Condition Day Schedule Name
    ,                         !- Humidity Ratio at Maximum DryBulb
    ,                         !- Enthalpy at Maximum DryBulb
    ,                         !- Daily WetBulb Temperature Range
    83411,                    !- Barometric Pressure
    2.3,                      !- Wind Speed
    180,                      !- Wind Direction
    No,                       !- Rain Indicator
    No,                       !- Snow Indicator
    No,                       !- Daylight Saving Time Indicator
    ASHRAEClearSky,           !- Solar Model Indicator
    ,                         !- Beam Solar Day Schedule Name
    ,                         !- Diffuse Solar Day Schedule Name
    ,                         !- ASHRAE Clear Sky Optical Depth for Beam Irradiance taub
    ,                         !- ASHRAE Clear Sky Optical Depth for Diffuse Irradiance taud
    0;                        !- Sky Clearness

SizingPeriod:DesignDay,
    DENVER_STAPLETON Ann Clg .4% Condns DB=>MWB,    !- Name
    7,                        !- Month
    21,                       !- Day of Month
    SummerDesignDay,          !- Day Type
    34.1,                     !- Maximum DryBulb Temperature
    15.2,                     !- Daily DryBulb Temperature Range
    ,                         !- DryBulb Temperature Range Modifier Type
    ,                         !- DryBulb Temperature Range Modifier Day Schedule Name
    Wetbulb,                  !- Humidity Condition Type
    15.8,                     !- Wetbulb or DewPoint at Maximum DryBulb
    ,                         !- Humidity Condition Day Schedule Name
    ,                         !- Humidity Ratio at Maximum DryBulb
    ,                         !- Enthalpy at Maximum DryBulb
    ,                         !- Daily WetBulb Temperature Range
    83411,                    !- Barometric Pressure
    4,                        !- Wind Speed
    120,                      !- Wind Direction
    No,                       !- Rain Indicator
    No,                       !- Snow Indicator
    No,                       !- Daylight Saving Time Indicator
    ASHRAEClearSky,           !- Solar Model Indicator
    ,                         !- Beam Solar Day Schedule Name
    ,                         !- Diffuse Solar Day Schedule Name
    ,                         !- ASHRAE Clear Sky Optical Depth for Beam Irradiance taub
    ,                         !- ASHRAE Clear Sky Optical Depth for Diffuse Irradiance taud
    1;                        !- Sky Clearness

RunPeriod,
    ,                         !- Name
    1,                        !- Begin Month
    1,                        !- Begin Day of Month
    ,                         !- Begin Year
    12,                       !- End Month
    31,                       !- End Day of Month
    ,                         !- End Year
    Sunday,                   !- Day of Week for Start Day
    Yes,                      !- Use Weather File Holidays and Special Days
    Yes,                      !- Use Weather File Daylight Saving Period
    No,                       !- Apply Weekend Holiday Rule
    Yes,                      !- Use Weather File Rain Indicators
    Yes;                      !- Use Weather File Snow Indicators

SITE:GROUNDTEMPERATURE:FCFACTORMETHOD,
    20.9,                     !- January Ground Temperature
    15.4,                     !- February Ground Temperature
    11.9,                     !- March Ground Temperature
    14.8,                     !- April Ground Temperature
    12.7,                     !- May Ground Temperature
    15.4,                     !- June Ground Temperature
    23.3,                     !- July Ground Temperature
    26.3,                     !- August Ground Temperature
    31.2,                     !- September Ground Temperature
    30.4,                     !- October Ground Temperature
    29.8,                     !- November Ground Temperature
    27.8;                     !- December Ground Temperature

ScheduleTypeLimits,
    Any Number,               !- Name
    ,                         !- Lower Limit Value
    ,                         !- Upper Limit Value
    ,                         !- Numeric Type
    Dimensionless;            !- Unit Type

SCHEDULE:COMPACT,
    bldg_occ_sch,             !- Name
    Any Number,               !- Schedule Type Limits Name
    Through: 12/31,           !- Field 1
    For: WinterDesignDay,     !- Field 2
    Until: 24:00,             !- Field 3
    0,                        !- Field 4
    For: SummerDesignDay,     !- Field 5
    Until: 24:00,             !- Field 6
    1,                        !- Field 7
    For: Weekdays,            !- Field 8
    Until: 24:00,             !- Field 9
    0.95,                     !- Field 10
    For: Saturday,            !- Field 11
    Until: 6:00,              !- Field 12
    0.95,                     !- Field 13
    Until: 7:00,              !- Field 14
    0.2,                      !- Field 15
    Until: 21:00,             !- Field 16
    0,                        !- Field 17
    Until: 22:00,             !- Field 18
    0.2,                      !- Field 19
    Until: 24:00,             !- Field 20
    0.95,                     !- Field 21
    For: Sunday,              !- Field 22
    Until: 6:00,              !- Field 23
    0.95,                     !- Field 24
    Until: 7:00,              !- Field 25
    0.2,                      !- Field 26
    Until: 21:00,             !- Field 27
    0,                        !- Field 28
    Until: 22:00,             !- Field 29
    0.2,                      !- Field 30
    Until: 24:00,             !- Field 31
    0.95,                     !- Field 32
    For: Holidays,            !- Field 33
    Until: 6:00,              !- Field 34
    0.95,                     !- Field 35
    Until: 7:00,              !- Field 36
    0.2,                      !- Field 37
    Until: 21:00,             !- Field 38
    0,                        !- Field 39
    Until: 22:00,             !- Field 40
    0.2,                      !- Field 41
    Until: 24:00,             !- Field 42
    0.95,                     !- Field 43
    For: AllOtherDays,        !- Field 44
    Until: 6:00,              !- Field 45
    0.95,                     !- Field 46
    Until: 7:00,              !- Field 47
    0.2,                      !- Field 48
    Until: 21:00,             !- Field 49
    0,                        !- Field 50
    Until: 22:00,             !- Field 51
    0.2,                      !- Field 52
    Until: 24:00,             !- Field 53
    0.95;                     !- Field 54

SCHEDULE:COMPACT,
    bldg_electric_equipment_sch,    !- Name
    Any Number,               !- Schedule Type Limits Name
    Through: 12/31,           !- Field 1
    For: WinterDesignDay,     !- Field 2
    Until: 24:00,             !- Field 3
    0,                        !- Field 4
    For: SummerDesignDay,     !- Field 5
    Until: 24:00,             !- Field 6
    1,                        !- Field 7
    For: Weekdays,            !- Field 8
    Until: 24:00,             !- Field 9
    0.955,                    !- Field 10
    For: Saturday,            !- Field 11
    Until: 6:00,              !- Field 12
    0.955,                    !- Field 13
    Until: 7:00,              !- Field 14
    0.28,                     !- Field 15
    Until: 21:00,             !- Field 16
    0.1,                      !- Field 17
    Until: 22:00,             !- Field 18
    0.28,                     !- Field 19
    Until: 24:00,             !- Field 20
    0.955,                    !- Field 21
    For: Sunday,              !- Field 22
    Until: 6:00,              !- Field 23
    0.955,                    !- Field 24
    Until: 7:00,              !- Field 25
    0.28,                     !- Field 26
    Until: 21:00,             !- Field 27
    0.1,                      !- Field 28
    Until: 22:00,             !- Field 29
    0.28,                     !- Field 30
    Until: 24:00,             !- Field 31
    0.955,                    !- Field 32
    For: Holidays,            !- Field 33
    Until: 6:00,              !- Field 34
    0.955,                    !- Field 35
    Until: 7:00,              !- Field 36
    0.28,                     !- Field 37
    Until: 21:00,             !- Field 38
    0.1,                      !- Field 39
    Until: 22:00,             !- Field 40
    0.28,                     !- Field 41
    Until: 24:00,             !- Field 42
    0.955,                    !- Field 43
    For: AllOtherDays,        !- Field 44
    Until: 6:00,              !- Field 45
    0.955,                    !- Field 46
    Until: 7:00,              !- Field 47
    0.28,                     !- Field 48
    Until: 21:00,             !- Field 49
    0.1,                      !- Field 50
    Until: 22:00,             !- Field 51
    0.28,                     !- Field 52
    Until: 24:00,             !- Field 53
    0.955;                    !- Field 54

SCHEDULE:COMPACT,
    bldg_light_sch,           !- Name
    Any Number,               !- Schedule Type Limits Name
    Through: 12/31,           !- Field 1
    For: WinterDesignDay,     !- Field 2
    Until: 24:00,             !- Field 3
    0,                        !- Field 4
    For: SummerDesignDay,     !- Field 5
    Until: 24:00,             !- Field 6
    1,                        !- Field 7
    For: Weekdays,            !- Field 8
    Until: 24:00,             !- Field 9
    0.9,                      !- Field 10
    For: Saturday,            !- Field 11
    Until: 6:00,              !- Field 12
    0.9,                      !- Field 13
    Until: 7:00,              !- Field 14
    0.3,                      !- Field 15
    Until: 21:00,             !- Field 16
    0.05,                     !- Field 17
    Until: 22:00,             !- Field 18
    0.3,                      !- Field 19
    Until: 24:00,             !- Field 20
    0.9,                      !- Field 21
    For: Sunday,              !- Field 22
    Until: 6:00,              !- Field 23
    0.9,                      !- Field 24
    Until: 7:00,              !- Field 25
    0.3,                      !- Field 26
    Until: 21:00,             !- Field 27
    0.05,                     !- Field 28
    Until: 22:00,             !- Field 29
    0.3,                      !- Field 30
    Until: 24:00,             !- Field 31
    0.9,                      !- Field 32
    For: Holidays,            !- Field 33
    Until: 6:00,              !- Field 34
    0.9,                      !- Field 35
    Until: 7:00,              !- Field 36
    0.3,                      !- Field 37
    Until: 21:00,             !- Field 38
    0.05,                     !- Field 39
    Until: 22:00,             !- Field 40
    0.3,                      !- Field 41
    Until: 24:00,             !- Field 42
    0.9,                      !- Field 43
    For: AllOtherDays,        !- Field 44
    Until: 6:00,              !- Field 45
    0.9,                      !- Field 46
    Until: 7:00,              !- Field 47
    0.3,                      !- Field 48
    Until: 21:00,             !- Field 49
    0.05,                     !- Field 50
    Until: 22:00,             !- Field 51
    0.3,                      !- Field 52
    Until: 24:00,             !- Field 53
    0.9;                      !- Field 54

SCHEDULE:COMPACT,
    bldg_hvac_operation_sch,    !- Name
    Any Number,               !- Schedule Type Limits Name
    Through: 12/31,           !- Field 1
    For: WinterDesignDay,     !- Field 2
    Until: 6:00,              !- Field 3
    1,                        !- Field 4
    Until: 21:00,             !- Field 5
    0,                        !- Field 6
    Until: 24:00,             !- Field 7
    1,                        !- Field 8
    For: SummerDesignDay,     !- Field 9
    Until: 6:00,              !- Field 10
    1,                        !- Field 11
    Until: 21:00,             !- Field 12
    0,                        !- Field 13
    Until: 24:00,             !- Field 14
    1,                        !- Field 15
    For: Weekdays,            !- Field 16
    Until: 24:00,             !- Field 17
    1,                        !- Field 18
    For: Saturday,            !- Field 19
    Until: 6:00,              !- Field 20
    1,                        !- Field 21
    Until: 21:00,             !- Field 22
    0,                        !- Field 23
    Until: 24:00,             !- Field 24
    1,                        !- Field 25
    For: Sunday,              !- Field 26
    Until: 6:00,              !- Field 27
    1,                        !- Field 28
    Until: 21:00,             !- Field 29
    0,                        !- Field 30
    Until: 24:00,             !- Field 31
    1,                        !- Field 32
    For: Holidays,            !- Field 33
    Until: 6:00,              !- Field 34
    1,                        !- Field 35
    Until: 21:00,             !- Field 36
    0,                        !- Field 37
    Until: 24:00,             !- Field 38
    1,                        !- Field 39
    For: AllOtherDays,        !- Field 40
    Until: 6:00,              !- Field 41
    1,                        !- Field 42
    Until: 21:00,             !- Field 43
    0,                        !- Field 44
    Until: 24:00,             !- Field 45
    1;                        !- Field 46

SCHEDULE:COMPACT,
    bldg_clg_setp_sch,        !- Name
    Any Number,               !- Schedule Type Limits Name
    Through: 12/31,           !- Field 1
    For: WinterDesignDay,     !- Field 2
    Until: 6:00,              !- Field 3
    21,                       !- Field 4
    Until: 21:00,             !- Field 5
    15.6,                     !- Field 6
    Until: 24:00,             !- Field 7
    21,                       !- Field 8
    For: SummerDesignDay,     !- Field 9
    Until: 6:00,              !- Field 10
    21,                       !- Field 11
    Until: 21:00,             !- Field 12
    15.6,                     !- Field 13
    Until: 24:00,             !- Field 14
    21,                       !- Field 15
    For: Weekdays,            !- Field 16
    Until: 24:00,             !- Field 17
    21,                       !- Field 18
    For: Saturday,            !- Field 19
    Until: 6:00,              !- Field 20
    21,                       !- Field 21
    Until: 21:00,             !- Field 22
    15.6,                     !- Field 23
    Until: 24:00,             !- Field 24
    21,                       !- Field 25
    For: Sunday,              !- Field 26
    Until: 6:00,              !- Field 27
    21,                       !- Field 28
    Until: 21:00,             !- Field 29
    15.6,                     !- Field 30
    Until: 24:00,             !- Field 31
    21,                       !- Field 32
    For: Holidays,            !- Field 33
    Until: 6:00,              !- Field 34
    21,                       !- Field 35
    Until: 21:00,             !- Field 36
    15.6,                     !- Field 37
    Until: 24:00,             !- Field 38
    21,                       !- Field 39
    For: AllOtherDays,        !- Field 40
    Until: 6:00,              !- Field 41
    21,                       !- Field 42
    Until: 21:00,             !- Field 43
    15.6,                     !- Field 44
    Until: 24:00,             !- Field 45
    21;                       !- Field 46

SCHEDULE:COMPACT,
    bldg_htg_setp_sch,        !- Name
    Any Number,               !- Schedule Type Limits Name
    Through: 12/31,           !- Field 1
    For: WinterDesignDay,     !- Field 2
    Until: 6:00,              !- Field 3
    24,                       !- Field 4
    Until: 21:00,             !- Field 5
    26.7,                     !- Field 6
    Until: 24:00,             !- Field 7
    24,                       !- Field 8
    For: SummerDesignDay,     !- Field 9
    Until: 6:00,              !- Field 10
    24,                       !- Field 11
    Until: 21:00,             !- Field 12
    26.7,                     !- Field 13
    Until: 24:00,             !- Field 14
    24,                       !- Field 15
    For: Weekdays,            !- Field 16
    Until: 24:00,             !- Field 17
    24,                       !- Field 18
    For: Saturday,            !- Field 19
    Until: 6:00,              !- Field 20
    24,                       !- Field 21
    Until: 21:00,             !- Field 22
    26.7,                     !- Field 23
    Until: 24:00,             !- Field 24
    24,                       !- Field 25
    For: Sunday,              !- Field 26
    Until: 6:00,              !- Field 27
    24,                       !- Field 28
    Until: 21:00,             !- Field 29
    26.7,                     !- Field 30
    Until: 24:00,             !- Field 31
    24,                       !- Field 32
    For: Holidays,            !- Field 33
    Until: 6:00,              !- Field 34
    24,                       !- Field 35
    Until: 21:00,             !- Field 36
    26.7,                     !- Field 37
    Until: 24:00,             !- Field 38
    24,                       !- Field 39
    For: AllOtherDays,        !- Field 40
    Until: 6:00,              !- Field 41
    24,                       !- Field 42
    Until: 21:00,             !- Field 43
    26.7,                     !- Field 44
    Until: 24:00,             !- Field 45
    24;                       !- Field 46

SCHEDULE:COMPACT,
    bldg_infiltration_sch,    !- Name
    Any Number,               !- Schedule Type Limits Name
    Through: 12/31,           !- Field 1
    For: WinterDesignDay,     !- Field 2
    Until: 6:00,              !- Field 3
    1,                        !- Field 4
    Until: 21:00,             !- Field 5
    0.25,                     !- Field 6
    Until: 24:00,             !- Field 7
    1,                        !- Field 8
    For: SummerDesignDay,     !- Field 9
    Until: 6:00,              !- Field 10
    1,                        !- Field 11
    Until: 21:00,             !- Field 12
    0.25,                     !- Field 13
    Until: 24:00,             !- Field 14
    1,                        !- Field 15
    For: Weekdays,            !- Field 16
    Until: 24:00,             !- Field 17
    1,                        !- Field 18
    For: Saturday,            !- Field 19
    Until: 6:00,              !- Field 20
    1,                        !- Field 21
    Until: 21:00,             !- Field 22
    0.25,                     !- Field 23
    Until: 24:00,             !- Field 24
    1,                        !- Field 25
    For: Sunday,              !- Field 26
    Until: 6:00,              !- Field 27
    1,                        !- Field 28
    Until: 21:00,             !- Field 29
    0.25,                     !- Field 30
    Until: 24:00,             !- Field 31
    1,                        !- Field 32
    For: Holidays,            !- Field 33
    Until: 6:00,              !- Field 34
    1,                        !- Field 35
    Until: 21:00,             !- Field 36
    0.25,                     !- Field 37
    Until: 24:00,             !- Field 38
    1,                        !- Field 39
    For: AllOtherDays,        !- Field 40
    Until: 6:00,              !- Field 41
    1,                        !- Field 42
    Until: 21:00,             !- Field 43
    0.25,                     !- Field 44
    Until: 24:00,             !- Field 45
    1;                        !- Field 46

SCHEDULE:COMPACT,
    activity_sch,             !- Name
    Any Number,               !- Schedule Type Limits Name
    Through: 12/31,           !- Field 1
    For: WinterDesignDay,     !- Field 2
    Until: 24:00,             !- Field 3
    120,                      !- Field 4
    For: SummerDesignDay,     !- Field 5
    Until: 24:00,             !- Field 6
    120,                      !- Field 7
    For: Weekdays,            !- Field 8
    Until: 24:00,             !- Field 9
    120,                      !- Field 10
    For: Saturday,            !- Field 11
    Until: 24:00,             !- Field 12
    120,                      !- Field 13
    For: Sunday,              !- Field 14
    Until: 24:00,             !- Field 15
    120,                      !- Field 16
    For: Holidays,            !- Field 17
    Until: 24:00,             !- Field 18
    120,                      !- Field 19
    For: AllOtherDays,        !- Field 20
    Until: 24:00,             !- Field 21
    120;                      !- Field 22

SCHEDULE:COMPACT,
    always_on,                !- Name
    Any Number,               !- Schedule Type Limits Name
    Through: 12/31,           !- Field 1
    For: WinterDesignDay,     !- Field 2
    Until: 24:00,             !- Field 3
    1,                        !- Field 4
    For: SummerDesignDay,     !- Field 5
    Until: 24:00,             !- Field 6
    1,                        !- Field 7
    For: Weekdays,            !- Field 8
    Until: 24:00,             !- Field 9
    1,                        !- Field 10
    For: Saturday,            !- Field 11
    Until: 24:00,             !- Field 12
    1,                        !- Field 13
    For: Sunday,              !- Field 14
    Until: 24:00,             !- Field 15
    1,                        !- Field 16
    For: Holidays,            !- Field 17
    Until: 24:00,             !- Field 18
    1,                        !- Field 19
    For: AllOtherDays,        !- Field 20
    Until: 24:00,             !- Field 21
    1;                        !- Field 22

MATERIAL,
    g01_13mm_gypsum_board,    !- Name
    Smooth,                   !- Roughness
    0.0127,                   !- Thickness
    0.16,                     !- Conductivity
    800,                      !- Density
    1090,                     !- Specific Heat
    0.9,                      !- Thermal Absorptance
    0.7,                      !- Solar Absorptance
    0.5;                      !- Visible Absorptance

MATERIAL,
    100mm_normalweight_concrete_floor,    !- Name
    MediumRough,              !- Roughness
    0.1016,                   !- Thickness
    2.31,                     !- Conductivity
    2322,                     !- Density
    832,                      !- Specific Heat
    0.9,                      !- Thermal Absorptance
    0.7,                      !- Solar Absorptance
    0.7;                      !- Visible Absorptance

MATERIAL,
    f07_25mm_stucco,          !- Name
    Smooth,                   !- Roughness
    0.0254,                   !- Thickness
    0.72,                     !- Conductivity
    1856,                     !- Density
    840,                      !- Specific Heat
    0.9,                      !- Thermal Absorptance
    0.7,                      !- Solar Absorptance
    0.7;                      !- Visible Absorptance

MATERIAL,
    g01_16mm_gypsum_board,    !- Name
    MediumSmooth,             !- Roughness
    0.0159,                   !- Thickness
    0.16,                     !- Conductivity
    800,                      !- Density
    1090,                     !- Specific Heat
    0.9,                      !- Thermal Absorptance
    0.7,                      !- Solar Absorptance
    0.7;                      !- Visible Absorptance

MATERIAL,
    f13_builtup_roofing,      !- Name
    Rough,                    !- Roughness
    0.0095,                   !- Thickness
    0.16,                     !- Conductivity
    1120,                     !- Density
    1460,                     !- Specific Heat
    0.9,                      !- Thermal Absorptance
    0.7,                      !- Solar Absorptance
    0.7;                      !- Visible Absorptance

MATERIAL,
    f08_metal_surface,        !- Name
    Smooth,                   !- Roughness
    0.0008,                   !- Thickness
    45.28,                    !- Conductivity
    7824,                     !- Density
    500,                      !- Specific Heat
    0.9,                      !- Thermal Absorptance
    0.7,                      !- Solar Absorptance
    0.7;                      !- Visible Absorptance

MATERIAL:NOMASS,
    cp02_carpet_pad,          !- Name
    VeryRough,                !- Roughness
    0.21648,                  !- Thermal Resistance
    0.9,                      !- Thermal Absorptance
    0.7,                      !- Solar Absorptance
    0.8;                      !- Visible Absorptance

WINDOWMATERIAL:SIMPLEGLAZINGSYSTEM,
    glazing_u_2.0259_shgc_0.4329,    !- Name
    2.0259331562613867,       !- UFactor
    0.4329293624517957;       !- Solar Heat Gain Coefficient

CONSTRUCTION,
    int_wall_default,         !- Name
    g01_13mm_gypsum_board,    !- Outside Layer
    g01_13mm_gypsum_board;    !- Layer 2

CONSTRUCTION,
    int_floor_default,        !- Name
    100mm_normalweight_concrete_floor,    !- Outside Layer
    cp02_carpet_pad;          !- Layer 2

CONSTRUCTION,
    int_ceiling_default,      !- Name
    cp02_carpet_pad,          !- Outside Layer
    100mm_normalweight_concrete_floor;    !- Layer 2

CONSTRUCTION,
    ext_wall_steel_framed,    !- Name
    f07_25mm_stucco,          !- Outside Layer
    g01_16mm_gypsum_board,    !- Layer 2
    g01_16mm_gypsum_board;    !- Layer 3

CONSTRUCTION,
    roof_iead,                !- Name
    f13_builtup_roofing,      !- Outside Layer
    f08_metal_surface;        !- Layer 2

CONSTRUCTION,
    window_u_2.0259_shgc_0.4329,    !- Name
    glazing_u_2.0259_shgc_0.4329;    !- Outside Layer

CONSTRUCTION:FFACTORGROUNDFLOOR,
    Hotel/Motel_south_zone_perimeter_bottom_floor_ffactor,    !- Name
    1.3,                      !- FFactor
    275.4383213253263,        !- Area
    90.36690332195744;        !- PerimeterExposed

CONSTRUCTION:FFACTORGROUNDFLOOR,
    Hotel/Motel_west_zone_perimeter_bottom_floor_ffactor,    !- Name
    1.3,                      !- FFactor
    78.33854417671397,        !- Area
    25.701622105221116;       !- PerimeterExposed

CONSTRUCTION:FFACTORGROUNDFLOOR,
    Hotel/Motel_north_zone_perimeter_bottom_floor_ffactor,    !- Name
    1.3,                      !- FFactor
    275.4383213253263,        !- Area
    90.36690332195744;        !- PerimeterExposed

CONSTRUCTION:FFACTORGROUNDFLOOR,
    Hotel/Motel_east_zone_perimeter_bottom_floor_ffactor,    !- Name
    1.3,                      !- FFactor
    78.33854417671397,        !- Area
    25.701622105221116;       !- PerimeterExposed

CONSTRUCTION:FFACTORGROUNDFLOOR,
    Hotel/Motel_core_zone_core_bottom_floor_ffactor,    !- Name
    1.3,                      !- FFactor
    1615.0222689959196,       !- Area
    0;                        !- PerimeterExposed

GlobalGeometryRules,
    UpperLeftCorner,          !- Starting Vertex Position
    CounterClockWise,         !- Vertex Entry Direction
    World;                    !- Coordinate System

ZONE,
    Block Hotel/Motel_south_zone Storey 0,    !- Name
    0,                        !- Direction of Relative North
    0,                        !- X Origin
    0,                        !- Y Origin
    0,                        !- Z Origin
    1,                        !- Type
    1,                        !- Multiplier
    autocalculate,            !- Ceiling Height
    autocalculate,            !- Volume
    autocalculate,            !- Floor Area
    ,                         !- Zone Inside Convection Algorithm
    ,                         !- Zone Outside Convection Algorithm
    Yes;                      !- Part of Total Floor Area

ZONE,
    Block Hotel/Motel_south_zone Storey 1,    !- Name
    0,                        !- Direction of Relative North
    0,                        !- X Origin
    0,                        !- Y Origin
    0,                        !- Z Origin
    1,                        !- Type
    1,                        !- Multiplier
    autocalculate,            !- Ceiling Height
    autocalculate,            !- Volume
    autocalculate,            !- Floor Area
    ,                         !- Zone Inside Convection Algorithm
    ,                         !- Zone Outside Convection Algorithm
    Yes;                      !- Part of Total Floor Area

ZONE,
    Block Hotel/Motel_south_zone Storey 2,    !- Name
    0,                        !- Direction of Relative North
    0,                        !- X Origin